 Abaqus/Standard 2022.HF6                  DATE 13-Sep-2023 TIME 16:02:49
 SUMMARY OF JOB INFORMATION:
 STEP  INC ATT SEVERE EQUIL TOTAL  TOTAL      STEP       INC OF       DOF    IF
               DISCON ITERS ITERS  TIME/    TIME/LPF    TIME/LPF    MONITOR RIKS
               ITERS               FREQ
   1     1   1     0     4     4  0.100      0.100      0.1000    
   1     2   1     0     4     4  0.200      0.200      0.1000    
   1     3   1     0     2     2  0.300      0.300      0.1000    
   1     4   1     0     3     3  0.400      0.400      0.1000    
   1     5   1     0     4     4  0.500      0.500      0.1000    
   1     6   1     0     3     3  0.600      0.600      0.1000    
   1     7   1     0     2     2  0.700      0.700      0.1000    
   1     8   1     0     3     3  0.800      0.800      0.1000    
   1     9   1     0     3     3  0.900      0.900      0.1000    
   1    10   1     0     2     2  1.00       1.00       0.1000    
   1    11   1     0     2     2  1.10       1.10       0.1000    
   1    12   1     0     2     2  1.20       1.20       0.1000    
   1    13   1U    0     1     1  1.20       1.20       0.1000    
   1    13   2     0     2     2  1.25       1.25       0.05000   
   1    14   1     0     2     2  1.30       1.30       0.05000   
   1    15   1     0     3     3  1.40       1.40       0.1000    
   1    16   1U    0     1     1  1.40       1.40       0.1000    
   1    16   2     0     2     2  1.45       1.45       0.05000   
   1    17   1     0     2     2  1.50       1.50       0.05000   
   1    18   1     0     2     2  1.58       1.58       0.07500   
   1    19   1     0     2     2  1.60       1.60       0.02500   
   1    20   1U    0     1     1  1.60       1.60       0.1000    
   1    20   2     0     2     2  1.65       1.65       0.05000   
   1    21   1     0     2     2  1.70       1.70       0.05000   
   1    22   1     0     2     2  1.78       1.78       0.07500   
   1    23   1     0     2     2  1.80       1.80       0.02500   
   1    24   1     0     2     2  1.90       1.90       0.1000    
   1    25   1     0     2     2  2.00       2.00       0.1000    
   1    26   1     0     2     2  2.10       2.10       0.1000    
   1    27   1     0     2     2  2.20       2.20       0.1000    
   1    28   1     0     2     2  2.30       2.30       0.1000    
   1    29   1     0     3     3  2.40       2.40       0.1000    
   1    30   1     0     2     2  2.50       2.50       0.1000    
   1    31   1     0     2     2  2.60       2.60       0.1000    
   1    32   1     0     2     2  2.70       2.70       0.1000    
   1    33   1     0     1     1  2.80       2.80       0.1000    
   1    34   1     0     2     2  2.90       2.90       0.1000    
   1    35   1     0     1     1  3.00       3.00       0.1000    
   1    36   1     0     2     2  3.10       3.10       0.1000    
   1    37   1     0     2     2  3.20       3.20       0.1000    
   1    38   1     0     3     3  3.30       3.30       0.1000    
   1    39   1     0     3     3  3.40       3.40       0.1000    
   1    40   1     0     2     2  3.50       3.50       0.1000    
   1    41   1     0     3     3  3.60       3.60       0.1000    
   1    42   1     0     3     3  3.70       3.70       0.1000    
   1    43   1     0     1     1  3.80       3.80       0.1000    
   1    44   1     0     3     3  3.90       3.90       0.1000    
   1    45   1     0     3     3  4.00       4.00       0.1000    
   1    46   1     0     1     1  4.10       4.10       0.1000    
   1    47   1     0     3     3  4.20       4.20       0.1000    
   1    48   1     0     3     3  4.30       4.30       0.1000    
   1    49   1     0     3     3  4.40       4.40       0.1000    
   1    50   1     0     3     3  4.50       4.50       0.1000    
   1    51   1     0     3     3  4.60       4.60       0.1000    
   1    52   1     0     3     3  4.70       4.70       0.1000    
   1    53   1     0     2     2  4.80       4.80       0.1000    
   1    54   1     0     2     2  4.90       4.90       0.1000    
   1    55   1     0     3     3  5.00       5.00       0.1000    
   1    56   1U    0     1     1  5.00       5.00       0.1688    
   1    56   2U    0     1     1  5.00       5.00       0.08438   
   1    56   3     0     3     3  5.04       5.04       0.04219   
   1    57   1     0     2     2  5.11       5.11       0.06328   
   1    58   1     0     2     2  5.20       5.20       0.09492   
   1    59   1     0     2     2  5.34       5.34       0.1424    
   1    60   1     0     2     2  5.56       5.56       0.2136    
   1    61   1     0     2     2  5.88       5.88       0.3204    
   1    62   1U    0     1     1  5.88       5.88       0.4805    
   1    62   2     0     2     2  6.12       6.12       0.2403    
   1    63   1     0     3     3  6.48       6.48       0.3604    
   1    64   1     0     4     4  7.02       7.02       0.5406    
   1    65   1U    0     1     1  7.02       7.02       0.8109    
   1    65   2U    0     1     1  7.02       7.02       0.4055    
   1    65   3U    0     1     1  7.02       7.02       0.2027    
   1    65   4U    0     1     1  7.02       7.02       0.1014    
   1    65   5U    0     1     1  7.02       7.02       0.05068   
   1    65   6U    0     1     1  7.02       7.02       0.02534   
   1    65   7     0     4     4  7.03       7.03       0.01267   
   1    66   1U    0     1     1  7.03       7.03       0.01901   
   1    66   2U    0     1     1  7.03       7.03       0.009503  
   1    66   3U    0     1     1  7.03       7.03       0.004751  
   1    66   4U    0     1     1  7.03       7.03       0.002376  
   1    66   5U    0     1     1  7.03       7.03       0.001188  
   1    66   6U    0     1     1  7.03       7.03       0.0005939 
   1    66   7U    0     1     1  7.03       7.03       0.0002970 
   1    66   8U    0     1     1  7.03       7.03       0.0001485 
   1    66   9U    0     1     1  7.03       7.03       7.424e-05 
   1    66  10U    0     1     1  7.03       7.03       3.712e-05 
   1    66  11U    0     1     1  7.03       7.03       1.856e-05 
   1    66  12U    0     1     1  7.03       7.03       9.280e-06 
   1    66  13U    0     1     1  7.03       7.03       4.640e-06 
   1    66  14U    0     1     1  7.03       7.03       2.320e-06 
   1    66  15U    0     1     1  7.03       7.03       1.160e-06 
   1    66  16U    0     1     1  7.03       7.03       5.800e-07 
   1    66  17U    0     1     1  7.03       7.03       2.900e-07 
   1    66  18U    0     1     1  7.03       7.03       1.450e-07 
   1    66  19U    0     1     1  7.03       7.03       7.250e-08 
   1    66  20U    0     1     1  7.03       7.03       3.625e-08 
   1    66  21U    0     1     1  7.03       7.03       1.813e-08 
   1    66  22U    0     1     1  7.03       7.03       9.063e-09 
   1    66  23U    0     1     1  7.03       7.03       4.531e-09 
   1    66  24U    0     1     1  7.03       7.03       2.266e-09 
   1    66  25U    0     1     1  7.03       7.03       5.664e-10 
   1    66  26U    0     1     1  7.03       7.03       2.832e-10 
   1    66  27U    0     1     1  7.03       7.03       1.416e-10 
   1    66  28U    0     1     1  7.03       7.03       7.080e-11 
   1    66  29U    0     1     1  7.03       7.03       3.540e-11 
   1    66  30U    0     1     1  7.03       7.03       1.770e-11 
   1    66  31U    0     1     1  7.03       7.03       8.850e-12 
   1    66  32U    0     1     1  7.03       7.03       4.425e-12 
   1    66  33U    0     1     1  7.03       7.03       2.213e-12 
   1    66  34U    0     1     1  7.03       7.03       1.106e-12 
   1    66  35U    0     1     1  7.03       7.03       5.531e-13 
   1    66  36U    0     1     1  7.03       7.03       2.766e-13 
   1    66  37U    0     1     1  7.03       7.03       1.383e-13 
   1    66  38U    0     1     1  7.03       7.03       6.914e-14 
   1    66  39U    0     1     1  7.03       7.03       3.457e-14 
   1    66  40U    0     1     1  7.03       7.03       1.729e-14 
   1    66  41U    0     1     1  7.03       7.03       8.643e-15 
   1    66  42U    0     1     1  7.03       7.03       4.321e-15 
   1    66  43U    0     1     1  7.03       7.03       2.161e-15 
   1    66  44U    0     1     1  7.03       7.03       1.080e-15 
   1    66  45U    0     1     1  7.03       7.03       5.402e-16 
   1    66  46U    0     1     1  7.03       7.03       5.402e-16 
                          
 THE ANALYSIS HAS NOT BEEN COMPLETED
