1

   Abaqus 2022.HF6                                  Date 13-Sep-2023   Time 16:02:47
   For use by RWTH AACHEN UNIVERSITY under license from Dassault Systemes or its subsidiary.

                                                                                 
                                                                                 
 STEP    1     INCREMENT     1     STEP TIME    0.00    


                        S T E P       1     S T A T I C   A N A L Y S I S


                                                                                          

     AUTOMATIC TIME CONTROL WITH -
          A SUGGESTED INITIAL TIME INCREMENT OF                0.100    
          AND A TOTAL TIME PERIOD OF                            55.0    
          THE MINIMUM TIME INCREMENT ALLOWED IS                5.000-150
          THE MAXIMUM TIME INCREMENT ALLOWED IS                 55.0    

     LINEAR EQUATION SOLVER TYPE         ITERATIVE
     RELATIVE TOLERANCE OF CONVERGENCE   1.000E-05
     MAXIMUM NUMBER OF ITERATIONS        200

 CONVERGENCE TOLERANCE PARAMETERS FOR FORCE    
     CRITERION FOR RESIDUAL FORCE     FOR A NONLINEAR PROBLEM          5.000E-03
     CRITERION FOR DISP.    CORRECTION IN A NONLINEAR PROBLEM          1.000E-02
     INITIAL VALUE OF TIME AVERAGE FORCE                               1.000E-02
     AVERAGE FORCE     IS TIME AVERAGE FORCE    
     ALTERNATE CRIT. FOR RESIDUAL FORCE     FOR A NONLINEAR PROBLEM    2.000E-02
     CRITERION FOR ZERO FORCE     RELATIVE TO TIME AVRG. FORCE         1.000E-05
     CRITERION FOR RESIDUAL FORCE     WHEN THERE IS ZERO FLUX          1.000E-05
     CRITERION FOR DISP.    CORRECTION WHEN THERE IS ZERO FLUX         1.000E-03
     CRITERION FOR RESIDUAL FORCE     FOR A LINEAR INCREMENT           1.000E-08
     FIELD CONVERSION RATIO                                             1.00    
     CRITERION FOR ZERO FORCE     REL. TO TIME AVRG. MAX. FORCE        1.000E-05
     CRITERION FOR ZERO DISP.    RELATIVE TO CHARACTERISTIC LENGTH     1.000E-08

     VOLUMETRIC STRAIN COMPATIBILITY TOLERANCE FOR HYBRID SOLIDS       1.000E-05
     AXIAL STRAIN COMPATIBILITY TOLERANCE FOR HYBRID BEAMS             1.000E-05
     TRANS. SHEAR STRAIN COMPATIBILITY TOLERANCE FOR HYBRID BEAMS      1.000E-05
     SOFT CONTACT CONSTRAINT COMPATIBILITY TOLERANCE FOR P>P0          5.000E-03
     SOFT CONTACT CONSTRAINT COMPATIBILITY TOLERANCE FOR P=0.0         0.100    
     CONTACT FORCE ERROR TOLERANCE FOR CONVERT SDI=YES                 1.00    
     DISPLACEMENT COMPATIBILITY TOLERANCE FOR DCOUP ELEMENTS           1.000E-05
     ROTATION COMPATIBILITY TOLERANCE FOR DCOUP ELEMENTS               1.000E-05

 EQUILIBRIUM WILL BE CHECKED FOR SEVERE DISCONTINUITY ITERATIONS

 TIME INCREMENTATION CONTROL PARAMETERS:
 *** FIRST EQUILIBRIUM ITERATION FOR CONSECUTIVE DIVERGENCE CHECK             35
 *** EQUILIBRIUM ITERATION AT WHICH LOG. CONVERGENCE RATE CHECK BEGINS        15
     EQUILIBRIUM ITERATION AFTER WHICH ALTERNATE RESIDUAL IS USED              9
 *** MAXIMUM EQUILIBRIUM ITERATIONS ALLOWED                                   15
 *** EQUILIBRIUM ITERATION COUNT FOR CUT-BACK IN NEXT INCREMENT               28
 *** MAXIMUM EQUILIB. ITERS IN TWO INCREMENTS FOR TIME INCREMENT INCREASE      5
     MAXIMUM ITERATIONS FOR SEVERE DISCONTINUITIES                            50
 *** MAXIMUM ATTEMPTS ALLOWED IN AN INCREMENT                                 45
     MAXIMUM DISCON. ITERS IN TWO INCREMENTS FOR TIME INCREMENT INCREASE      50
     MAXIMUM CONTACT AUGMENTATIONS FOR *SURFACE BEHAVIOR,AUGMENTED LAGRANGE   50
     CUT-BACK FACTOR AFTER DIVERGENCE                                 0.2500    
     CUT-BACK FACTOR FOR TOO SLOW CONVERGENCE                         0.5000    
     CUT-BACK FACTOR AFTER TOO MANY EQUILIBRIUM ITERATIONS            0.7500    
     CUT-BACK FACTOR AFTER TOO MANY SEVERE DISCONTINUITY ITERATIONS   0.2500    
     CUT-BACK FACTOR AFTER PROBLEMS IN ELEMENT ASSEMBLY               0.2500    
     INCREASE FACTOR AFTER TWO INCREMENTS THAT CONVERGE QUICKLY        1.500    
     MAX. TIME INCREMENT INCREASE FACTOR ALLOWED                       1.500    
     MAX. TIME INCREMENT INCREASE FACTOR ALLOWED (DYNAMICS)            1.250    
     MAX. TIME INCREMENT INCREASE FACTOR ALLOWED (DIFFUSION)           2.000    
     MINIMUM TIME INCREMENT RATIO FOR EXTRAPOLATION TO OCCUR          0.1000    
     MAX. RATIO OF TIME INCREMENT TO STABILITY LIMIT                   1.000    
     FRACTION OF STABILITY LIMIT FOR NEW TIME INCREMENT               0.9500    
     TIME INCREMENT INCREASE FACTOR BEFORE A TIME POINT                1.000    

 *** INDICATES USE OF NON-DEFAULT TIME INCREMENTATION CONTROL PARAMETER
     SELECTED WITH *CONTROLS
     GLOBAL STABILIZATION CONTROL IS NOT USED

          PRINT OF INCREMENT NUMBER, TIME, ETC., EVERY    1  INCREMENTS

 LINE SEARCH TOLERANCE PARAMETERS:
 *** MAXIMUM NUMBER OF ZERO-FINDING ITERATIONS                                10
     MAXIMUM CORRECTION SCALE FACTOR                                    1.00    
     MINIMUM CORRECTION SCALE FACTOR                                   1.000E-04
     RESIDUAL REDUCTION FACTOR TO END LINE SEARCHING                   0.250    
     RATIO OF NEW TO OLD SCALE FACTORS TO END LINE SEARCHING           0.100    

 *** INDICATES USE OF NON-DEFAULT LINE SEARCH TOLERANCE PARAMETER
     SELECTED WITH *CONTROLS

     THE MAXIMUM NUMBER OF INCREMENTS IN THIS STEP IS                 *******

          LARGE DISPLACEMENT THEORY WILL BE USED

     LINEAR EXTRAPOLATION WILL BE USED

     CHARACTERISTIC ELEMENT LENGTH     2.727E-03

     DETAILS REGARDING ACTUAL SOLUTION WAVEFRONT REQUESTED

     DETAILED OUTPUT OF DIAGNOSTICS TO DATABASE REQUESTED

     PRINT OF INCREMENT NUMBER, TIME, ETC., TO THE MESSAGE FILE EVERY     1  INCREMENTS
  
     MODEL DECOMPOSITION USED FOR PARALLEL ELEMENT OPERATIONS:
  
        DOMAIN          ELEMENTS          NODES          INTERFACE
       --------        ----------        -------        -----------
           1                  84            215                193
           2                  84            227                210
           3                  82            216                180
           4                  84            250                209
           5                  82            196                179
           6                  84            190                172
           7                  82            228                192
           8                  83            225                196
           9                  82            288                228
          10                  82            318                266
          11                  84            288                252
          12                  84            224                207
          13                  84            204                186
          14                  82            245                214
          15                  84            251                232
          16                  84            241                220
  

     ELEMENT OPERATIONS WILL BE CARRIED OUT IN PARALLEL USING  16 DOMAINS WITH 1 THREAD PER DOMAIN

     COLLECTING MODEL CONSTRAINT INFORMATION FOR OVERCONSTRAINT CHECKS

     COLLECTING STEP CONSTRAINT INFORMATION FOR OVERCONSTRAINT CHECKS


  INCREMENT     1 STARTS. ATTEMPT NUMBER  1, TIME INCREMENT  0.100    
 
     INITIAL ELEMENT LOAD BALANCE
            DOMAIN    1     THREAD    NUMBER OF ELEMENTS
                              1            84
            DOMAIN    2     THREAD    NUMBER OF ELEMENTS
                              1            84
            DOMAIN    3     THREAD    NUMBER OF ELEMENTS
                              1            82
            DOMAIN    4     THREAD    NUMBER OF ELEMENTS
                              1            84
            DOMAIN    5     THREAD    NUMBER OF ELEMENTS
                              1            82
            DOMAIN    6     THREAD    NUMBER OF ELEMENTS
                              1            84
            DOMAIN    7     THREAD    NUMBER OF ELEMENTS
                              1            82
            DOMAIN    8     THREAD    NUMBER OF ELEMENTS
                              1            83
            DOMAIN    9     THREAD    NUMBER OF ELEMENTS
                              1            82
            DOMAIN   10     THREAD    NUMBER OF ELEMENTS
                              1            82
            DOMAIN   11     THREAD    NUMBER OF ELEMENTS
                              1            84
            DOMAIN   12     THREAD    NUMBER OF ELEMENTS
                              1            84
            DOMAIN   13     THREAD    NUMBER OF ELEMENTS
                              1            84
            DOMAIN   14     THREAD    NUMBER OF ELEMENTS
                              1            82
            DOMAIN   15     THREAD    NUMBER OF ELEMENTS
                              1            84
            DOMAIN   16     THREAD    NUMBER OF ELEMENTS
                              1            84
 
	SYMMETRIC ITERATIVE SOLVER RUNNING ON
 	1 HOST:        16 MPI RANKS x 1 THREAD
 	NUMBER OF EQUATIONS:     4002
 	NUMBER OF RHS:           1
 	KRYLOV METHOD:           CG
 	PRECONDITIONER:          PAMG
 	CONVERGENCE TOL:         1.000e-05
 	MAXIMUM ITERATIONS:      200
 	SETUP TIME:              0.1 SEC
 	APPLY TIME:              0.0 SEC
 
    NUMBER OF MATRIX-VECTOR MULTIPLICATIONS: 65
 
 ITERATIVE SOLVER CONVERGED.
 NUM. ITERATIONS =    6 RELATIVE RESIDUAL NORM =  4.309e-06 RHS NORM =  2.547e-02

               CONVERGENCE CHECKS FOR EQUILIBRIUM ITERATION     1


 AVERAGE FORCE                      1.168E-05   TIME AVG. FORCE       1.168E-05
 LARGEST SCALED RESIDUAL FORCE     -2.455E-03   AT NODE       1596   DOF  1
   INSTANCE: PART-1-1                                                                        
  CORRESPONDING RESIDUAL FORCE     -2.455E-03
 LARGEST INCREMENT OF DISP.         3.208E-06   AT NODE        282   DOF  2
   INSTANCE: PART-1-1                                                                        
 LARGEST CORRECTION TO DISP.        3.208E-06   AT NODE        282   DOF  2
   INSTANCE: PART-1-1                                                                        
          FORCE     EQUILIBRIUM NOT ACHIEVED WITHIN TOLERANCE.
 
	SYMMETRIC ITERATIVE SOLVER RUNNING ON
 	1 HOST:        16 MPI RANKS x 1 THREAD
 	NUMBER OF EQUATIONS:     4002
 	NUMBER OF RHS:           1
 	KRYLOV METHOD:           CG
 	PRECONDITIONER:          PAMG
 	CONVERGENCE TOL:         1.000e-05
 	MAXIMUM ITERATIONS:      200
 	SETUP TIME:              0.1 SEC
 	APPLY TIME:              0.0 SEC
 
    NUMBER OF MATRIX-VECTOR MULTIPLICATIONS: 74
 
 ITERATIVE SOLVER CONVERGED.
 NUM. ITERATIONS =    7 RELATIVE RESIDUAL NORM =  3.770e-06 RHS NORM =  3.672e-03

               CONVERGENCE CHECKS FOR EQUILIBRIUM ITERATION     2


 AVERAGE FORCE                      6.395E-06   TIME AVG. FORCE       6.395E-06
 LARGEST SCALED RESIDUAL FORCE      4.138E-05   AT NODE          1   DOF  3
   INSTANCE: PART-1-1                                                                        
  CORRESPONDING RESIDUAL FORCE      4.138E-05
 LARGEST INCREMENT OF DISP.         3.326E-06   AT NODE       1291   DOF  2
   INSTANCE: PART-1-1                                                                        
 LARGEST CORRECTION TO DISP.        1.184E-06   AT NODE         65   DOF  3
   INSTANCE: PART-1-1                                                                        
          FORCE     EQUILIBRIUM NOT ACHIEVED WITHIN TOLERANCE.
 
	SYMMETRIC ITERATIVE SOLVER RUNNING ON
 	1 HOST:        16 MPI RANKS x 1 THREAD
 	NUMBER OF EQUATIONS:     4002
 	NUMBER OF RHS:           1
 	KRYLOV METHOD:           CG
 	PRECONDITIONER:          PAMG
 	CONVERGENCE TOL:         1.000e-05
 	MAXIMUM ITERATIONS:      200
 	SETUP TIME:              0.1 SEC
 	APPLY TIME:              0.0 SEC
 
    NUMBER OF MATRIX-VECTOR MULTIPLICATIONS: 83
 
 ITERATIVE SOLVER CONVERGED.
 NUM. ITERATIONS =    8 RELATIVE RESIDUAL NORM =  2.719e-06 RHS NORM =  1.058e-04

               CONVERGENCE CHECKS FOR EQUILIBRIUM ITERATION     3


 AVERAGE FORCE                      6.158E-06   TIME AVG. FORCE       6.158E-06
 LARGEST SCALED RESIDUAL FORCE      7.707E-07   AT NODE          1   DOF  3
   INSTANCE: PART-1-1                                                                        
  CORRESPONDING RESIDUAL FORCE      7.707E-07
 LARGEST INCREMENT OF DISP.         3.344E-06   AT NODE       1291   DOF  2
   INSTANCE: PART-1-1                                                                        
 LARGEST CORRECTION TO DISP.        1.094E-07   AT NODE        829   DOF  3
   INSTANCE: PART-1-1                                                                        
          FORCE     EQUILIBRIUM NOT ACHIEVED WITHIN TOLERANCE.
 
	SYMMETRIC ITERATIVE SOLVER RUNNING ON
 	1 HOST:        16 MPI RANKS x 1 THREAD
 	NUMBER OF EQUATIONS:     4002
 	NUMBER OF RHS:           1
 	KRYLOV METHOD:           CG
 	PRECONDITIONER:          PAMG
 	CONVERGENCE TOL:         1.000e-05
 	MAXIMUM ITERATIONS:      200
 	SETUP TIME:              0.1 SEC
 	APPLY TIME:              0.0 SEC
 
    NUMBER OF MATRIX-VECTOR MULTIPLICATIONS: 83
 
 ITERATIVE SOLVER CONVERGED.
 NUM. ITERATIONS =    8 RELATIVE RESIDUAL NORM =  5.913e-06 RHS NORM =  2.576e-06

               CONVERGENCE CHECKS FOR EQUILIBRIUM ITERATION     4


 AVERAGE FORCE                      6.153E-06   TIME AVG. FORCE       6.153E-06
 LARGEST SCALED RESIDUAL FORCE      1.279E-09   AT NODE       1596   DOF  1
   INSTANCE: PART-1-1                                                                        
  CORRESPONDING RESIDUAL FORCE      1.279E-09
 LARGEST INCREMENT OF DISP.         3.345E-06   AT NODE       1291   DOF  2
   INSTANCE: PART-1-1                                                                        
 LARGEST CORRECTION TO DISP.        4.772E-09   AT NODE        196   DOF  2
   INSTANCE: PART-1-1                                                                        
          THE FORCE     EQUILIBRIUM EQUATIONS HAVE CONVERGED

 ITERATION SUMMARY FOR THE INCREMENT:   4 TOTAL ITERATIONS, OF WHICH
   0 ARE SEVERE DISCONTINUITY ITERATIONS AND  4 ARE EQUILIBRIUM ITERATIONS.

 TIME INCREMENT COMPLETED  0.100    ,  FRACTION OF STEP COMPLETED  1.818E-03
 STEP TIME COMPLETED       0.100    ,  TOTAL TIME COMPLETED        0.100    


  INCREMENT     2 STARTS. ATTEMPT NUMBER  1, TIME INCREMENT  0.100    
 
	SYMMETRIC ITERATIVE SOLVER RUNNING ON
 	1 HOST:        16 MPI RANKS x 1 THREAD
 	NUMBER OF EQUATIONS:     4002
 	NUMBER OF RHS:           1
 	KRYLOV METHOD:           CG
 	PRECONDITIONER:          PAMG
 	CONVERGENCE TOL:         1.000e-05
 	MAXIMUM ITERATIONS:      200
 	SETUP TIME:              0.1 SEC
 	APPLY TIME:              0.0 SEC
 
    NUMBER OF MATRIX-VECTOR MULTIPLICATIONS: 74
 
 ITERATIVE SOLVER CONVERGED.
 NUM. ITERATIONS =    7 RELATIVE RESIDUAL NORM =  7.298e-06 RHS NORM =  2.009e-02

               CONVERGENCE CHECKS FOR EQUILIBRIUM ITERATION     1


 AVERAGE FORCE                      5.993E-06   TIME AVG. FORCE       6.073E-06
 LARGEST SCALED RESIDUAL FORCE      1.939E-04   AT NODE          1   DOF  3
   INSTANCE: PART-1-1                                                                        
  CORRESPONDING RESIDUAL FORCE      1.939E-04
 LARGEST INCREMENT OF DISP.        -5.565E-08   AT NODE        844   DOF  3
   INSTANCE: PART-1-1                                                                        
 LARGEST CORRECTION TO DISP.       -3.356E-06   AT NODE       1291   DOF  2
   INSTANCE: PART-1-1                                                                        
          FORCE     EQUILIBRIUM NOT ACHIEVED WITHIN TOLERANCE.
 
	SYMMETRIC ITERATIVE SOLVER RUNNING ON
 	1 HOST:        16 MPI RANKS x 1 THREAD
 	NUMBER OF EQUATIONS:     4002
 	NUMBER OF RHS:           1
 	KRYLOV METHOD:           CG
 	PRECONDITIONER:          PAMG
 	CONVERGENCE TOL:         1.000e-05
 	MAXIMUM ITERATIONS:      200
 	SETUP TIME:              0.1 SEC
 	APPLY TIME:              0.0 SEC
 
    NUMBER OF MATRIX-VECTOR MULTIPLICATIONS: 74
 
 ITERATIVE SOLVER CONVERGED.
 NUM. ITERATIONS =    7 RELATIVE RESIDUAL NORM =  1.507e-06 RHS NORM =  3.053e-04

               CONVERGENCE CHECKS FOR EQUILIBRIUM ITERATION     2


 AVERAGE FORCE                      5.767E-06   TIME AVG. FORCE       5.960E-06
 LARGEST SCALED RESIDUAL FORCE      2.050E-05   AT NODE          1   DOF  3
   INSTANCE: PART-1-1                                                                        
  CORRESPONDING RESIDUAL FORCE      2.050E-05
 LARGEST INCREMENT OF DISP.        -8.680E-08   AT NODE        924   DOF  1
   INSTANCE: PART-1-1                                                                        
 LARGEST CORRECTION TO DISP.        9.997E-08   AT NODE         65   DOF  3
   INSTANCE: PART-1-1                                                                        
          FORCE     EQUILIBRIUM NOT ACHIEVED WITHIN TOLERANCE.
 
	SYMMETRIC ITERATIVE SOLVER RUNNING ON
 	1 HOST:        16 MPI RANKS x 1 THREAD
 	NUMBER OF EQUATIONS:     4002
 	NUMBER OF RHS:           1
 	KRYLOV METHOD:           CG
 	PRECONDITIONER:          PAMG
 	CONVERGENCE TOL:         1.000e-05
 	MAXIMUM ITERATIONS:      200
 	SETUP TIME:              0.1 SEC
 	APPLY TIME:              0.0 SEC
 
    NUMBER OF MATRIX-VECTOR MULTIPLICATIONS: 74
 
 ITERATIVE SOLVER CONVERGED.
 NUM. ITERATIONS =    7 RELATIVE RESIDUAL NORM =  3.308e-06 RHS NORM =  4.510e-05

               CONVERGENCE CHECKS FOR EQUILIBRIUM ITERATION     3


 AVERAGE FORCE                      5.724E-06   TIME AVG. FORCE       5.939E-06
 LARGEST SCALED RESIDUAL FORCE      1.378E-06   AT NODE          1   DOF  3
   INSTANCE: PART-1-1                                                                        
  CORRESPONDING RESIDUAL FORCE      1.378E-06
 LARGEST INCREMENT OF DISP.         1.051E-07   AT NODE         66   DOF  3
   INSTANCE: PART-1-1                                                                        
 LARGEST CORRECTION TO DISP.        2.753E-08   AT NODE         65   DOF  3
   INSTANCE: PART-1-1                                                                        
          FORCE     EQUILIBRIUM NOT ACHIEVED WITHIN TOLERANCE.
 
	SYMMETRIC ITERATIVE SOLVER RUNNING ON
 	1 HOST:        16 MPI RANKS x 1 THREAD
 	NUMBER OF EQUATIONS:     4002
 	NUMBER OF RHS:           1
 	KRYLOV METHOD:           CG
 	PRECONDITIONER:          PAMG
 	CONVERGENCE TOL:         1.000e-05
 	MAXIMUM ITERATIONS:      200
 	SETUP TIME:              0.1 SEC
 	APPLY TIME:              0.0 SEC
 
    NUMBER OF MATRIX-VECTOR MULTIPLICATIONS: 74
 
 ITERATIVE SOLVER CONVERGED.
 NUM. ITERATIONS =    7 RELATIVE RESIDUAL NORM =  3.608e-06 RHS NORM =  2.986e-06

               CONVERGENCE CHECKS FOR EQUILIBRIUM ITERATION     4


 AVERAGE FORCE                      5.721E-06   TIME AVG. FORCE       5.937E-06
 LARGEST SCALED RESIDUAL FORCE      6.859E-09   AT NODE          1   DOF  3
   INSTANCE: PART-1-1                                                                        
  CORRESPONDING RESIDUAL FORCE      6.859E-09
 LARGEST INCREMENT OF DISP.         1.063E-07   AT NODE         66   DOF  3
   INSTANCE: PART-1-1                                                                        
 LARGEST CORRECTION TO DISP.        2.865E-09   AT NODE        196   DOF  2
   INSTANCE: PART-1-1                                                                        
 ESTIMATE OF DISP.    CORRECTION    1.426E-11
 FORCE     EQUILIB. ACCEPTED BASED ON SMALL RESIDUAL AND ESTIMATED CORRECTION
          TIME INCREMENT MAY NOW INCREASE TO    0.100    

 ITERATION SUMMARY FOR THE INCREMENT:   4 TOTAL ITERATIONS, OF WHICH
   0 ARE SEVERE DISCONTINUITY ITERATIONS AND  4 ARE EQUILIBRIUM ITERATIONS.

 TIME INCREMENT COMPLETED  0.100    ,  FRACTION OF STEP COMPLETED  3.636E-03
 STEP TIME COMPLETED       0.200    ,  TOTAL TIME COMPLETED        0.200    


  INCREMENT     3 STARTS. ATTEMPT NUMBER  1, TIME INCREMENT  0.100    
 
	SYMMETRIC ITERATIVE SOLVER RUNNING ON
 	1 HOST:        16 MPI RANKS x 1 THREAD
 	NUMBER OF EQUATIONS:     4002
 	NUMBER OF RHS:           1
 	KRYLOV METHOD:           CG
 	PRECONDITIONER:          PAMG
 	CONVERGENCE TOL:         1.000e-05
 	MAXIMUM ITERATIONS:      200
 	SETUP TIME:              0.1 SEC
 	APPLY TIME:              0.0 SEC
 
    NUMBER OF MATRIX-VECTOR MULTIPLICATIONS: 74
 
 ITERATIVE SOLVER CONVERGED.
 NUM. ITERATIONS =    7 RELATIVE RESIDUAL NORM =  1.906e-06 RHS NORM =  2.001e-04

               CONVERGENCE CHECKS FOR EQUILIBRIUM ITERATION     1


 AVERAGE FORCE                      5.566E-06   TIME AVG. FORCE       5.813E-06
 LARGEST SCALED RESIDUAL FORCE      2.916E-06   AT NODE          1   DOF  3
   INSTANCE: PART-1-1                                                                        
  CORRESPONDING RESIDUAL FORCE      2.916E-06
 LARGEST INCREMENT OF DISP.         4.263E-08   AT NODE         66   DOF  3
   INSTANCE: PART-1-1                                                                        
 LARGEST CORRECTION TO DISP.       -6.364E-08   AT NODE         66   DOF  3
   INSTANCE: PART-1-1                                                                        
          FORCE     EQUILIBRIUM NOT ACHIEVED WITHIN TOLERANCE.
 
	SYMMETRIC ITERATIVE SOLVER RUNNING ON
 	1 HOST:        16 MPI RANKS x 1 THREAD
 	NUMBER OF EQUATIONS:     4002
 	NUMBER OF RHS:           1
 	KRYLOV METHOD:           CG
 	PRECONDITIONER:          PAMG
 	CONVERGENCE TOL:         1.000e-05
 	MAXIMUM ITERATIONS:      200
 	SETUP TIME:              0.1 SEC
 	APPLY TIME:              0.0 SEC
 
    NUMBER OF MATRIX-VECTOR MULTIPLICATIONS: 74
 
 ITERATIVE SOLVER CONVERGED.
 NUM. ITERATIONS =    7 RELATIVE RESIDUAL NORM =  2.074e-06 RHS NORM =  6.846e-06

               CONVERGENCE CHECKS FOR EQUILIBRIUM ITERATION     2


 AVERAGE FORCE                      5.560E-06   TIME AVG. FORCE       5.811E-06
 LARGEST SCALED RESIDUAL FORCE      2.182E-08   AT NODE          1   DOF  3
   INSTANCE: PART-1-1                                                                        
  CORRESPONDING RESIDUAL FORCE      2.182E-08
 LARGEST INCREMENT OF DISP.         4.542E-08   AT NODE         66   DOF  3
   INSTANCE: PART-1-1                                                                        
 LARGEST CORRECTION TO DISP.        2.788E-09   AT NODE         66   DOF  3
   INSTANCE: PART-1-1                                                                        
 ESTIMATE OF DISP.    CORRECTION    2.087E-11
 FORCE     EQUILIB. ACCEPTED BASED ON SMALL RESIDUAL AND ESTIMATED CORRECTION
          TIME INCREMENT MAY NOW INCREASE TO    0.150    
          TIME INCREMENT REDUCED TO   0.100     TO MEET NEXT OUTPUT TIME POINT

 ITERATION SUMMARY FOR THE INCREMENT:   2 TOTAL ITERATIONS, OF WHICH
   0 ARE SEVERE DISCONTINUITY ITERATIONS AND  2 ARE EQUILIBRIUM ITERATIONS.

 TIME INCREMENT COMPLETED  0.100    ,  FRACTION OF STEP COMPLETED  5.455E-03
 STEP TIME COMPLETED       0.300    ,  TOTAL TIME COMPLETED        0.300    


  INCREMENT     4 STARTS. ATTEMPT NUMBER  1, TIME INCREMENT  0.100    
 
	SYMMETRIC ITERATIVE SOLVER RUNNING ON
 	1 HOST:        16 MPI RANKS x 1 THREAD
 	NUMBER OF EQUATIONS:     4002
 	NUMBER OF RHS:           1
 	KRYLOV METHOD:           CG
 	PRECONDITIONER:          PAMG
 	CONVERGENCE TOL:         1.000e-05
 	MAXIMUM ITERATIONS:      200
 	SETUP TIME:              0.1 SEC
 	APPLY TIME:              0.0 SEC
 
    NUMBER OF MATRIX-VECTOR MULTIPLICATIONS: 65
 
 ITERATIVE SOLVER CONVERGED.
 NUM. ITERATIONS =    6 RELATIVE RESIDUAL NORM =  5.647e-06 RHS NORM =  2.159e-02

               CONVERGENCE CHECKS FOR EQUILIBRIUM ITERATION     1


 AVERAGE FORCE                      1.322E-05   TIME AVG. FORCE       7.663E-06
 LARGEST SCALED RESIDUAL FORCE     -1.128E-03   AT NODE       1596   DOF  1
   INSTANCE: PART-1-1                                                                        
  CORRESPONDING RESIDUAL FORCE     -1.128E-03
 LARGEST INCREMENT OF DISP.         3.234E-06   AT NODE       1291   DOF  2
   INSTANCE: PART-1-1                                                                        
 LARGEST CORRECTION TO DISP.        3.231E-06   AT NODE       1723   DOF  2
   INSTANCE: PART-1-1                                                                        
          FORCE     EQUILIBRIUM NOT ACHIEVED WITHIN TOLERANCE.
 
	SYMMETRIC ITERATIVE SOLVER RUNNING ON
 	1 HOST:        16 MPI RANKS x 1 THREAD
 	NUMBER OF EQUATIONS:     4002
 	NUMBER OF RHS:           1
 	KRYLOV METHOD:           CG
 	PRECONDITIONER:          PAMG
 	CONVERGENCE TOL:         1.000e-05
 	MAXIMUM ITERATIONS:      200
 	SETUP TIME:              0.1 SEC
 	APPLY TIME:              0.0 SEC
 
    NUMBER OF MATRIX-VECTOR MULTIPLICATIONS: 74
 
 ITERATIVE SOLVER CONVERGED.
 NUM. ITERATIONS =    7 RELATIVE RESIDUAL NORM =  5.111e-06 RHS NORM =  1.722e-03

               CONVERGENCE CHECKS FOR EQUILIBRIUM ITERATION     2


 AVERAGE FORCE                      1.124E-05   TIME AVG. FORCE       7.169E-06
 LARGEST SCALED RESIDUAL FORCE      3.957E-06   AT NODE       1717   DOF  3
   INSTANCE: PART-1-1                                                                        
  CORRESPONDING RESIDUAL FORCE      3.957E-06
 LARGEST INCREMENT OF DISP.         3.371E-06   AT NODE       1147   DOF  2
   INSTANCE: PART-1-1                                                                        
 LARGEST CORRECTION TO DISP.        6.355E-07   AT NODE         65   DOF  3
   INSTANCE: PART-1-1                                                                        
          FORCE     EQUILIBRIUM NOT ACHIEVED WITHIN TOLERANCE.
 
	SYMMETRIC ITERATIVE SOLVER RUNNING ON
 	1 HOST:        16 MPI RANKS x 1 THREAD
 	NUMBER OF EQUATIONS:     4002
 	NUMBER OF RHS:           1
 	KRYLOV METHOD:           CG
 	PRECONDITIONER:          PAMG
 	CONVERGENCE TOL:         1.000e-05
 	MAXIMUM ITERATIONS:      200
 	SETUP TIME:              0.1 SEC
 	APPLY TIME:              0.0 SEC
 
    NUMBER OF MATRIX-VECTOR MULTIPLICATIONS: 83
 
 ITERATIVE SOLVER CONVERGED.
 NUM. ITERATIONS =    8 RELATIVE RESIDUAL NORM =  6.839e-06 RHS NORM =  1.488e-05

               CONVERGENCE CHECKS FOR EQUILIBRIUM ITERATION     3


 AVERAGE FORCE                      1.121E-05   TIME AVG. FORCE       7.161E-06
 LARGEST SCALED RESIDUAL FORCE      1.645E-08   AT NODE        477   DOF  1
   INSTANCE: PART-1-1                                                                        
  CORRESPONDING RESIDUAL FORCE      1.645E-08
 LARGEST INCREMENT OF DISP.         3.375E-06   AT NODE       1147   DOF  2
   INSTANCE: PART-1-1                                                                        
 LARGEST CORRECTION TO DISP.        1.627E-08   AT NODE       1253   DOF  3
   INSTANCE: PART-1-1                                                                        
          THE FORCE     EQUILIBRIUM EQUATIONS HAVE CONVERGED
          TIME INCREMENT MAY NOW INCREASE TO    0.225    
          TIME INCREMENT REDUCED TO   0.100     TO MEET NEXT OUTPUT TIME POINT

 ITERATION SUMMARY FOR THE INCREMENT:   3 TOTAL ITERATIONS, OF WHICH
   0 ARE SEVERE DISCONTINUITY ITERATIONS AND  3 ARE EQUILIBRIUM ITERATIONS.

 TIME INCREMENT COMPLETED  0.100    ,  FRACTION OF STEP COMPLETED  7.273E-03
 STEP TIME COMPLETED       0.400    ,  TOTAL TIME COMPLETED        0.400    


  INCREMENT     5 STARTS. ATTEMPT NUMBER  1, TIME INCREMENT  0.100    
 
	SYMMETRIC ITERATIVE SOLVER RUNNING ON
 	1 HOST:        16 MPI RANKS x 1 THREAD
 	NUMBER OF EQUATIONS:     4002
 	NUMBER OF RHS:           1
 	KRYLOV METHOD:           CG
 	PRECONDITIONER:          PAMG
 	CONVERGENCE TOL:         1.000e-05
 	MAXIMUM ITERATIONS:      200
 	SETUP TIME:              0.1 SEC
 	APPLY TIME:              0.0 SEC
 
    NUMBER OF MATRIX-VECTOR MULTIPLICATIONS: 74
 
 ITERATIVE SOLVER CONVERGED.
 NUM. ITERATIONS =    7 RELATIVE RESIDUAL NORM =  8.928e-06 RHS NORM =  2.007e-02

               CONVERGENCE CHECKS FOR EQUILIBRIUM ITERATION     1


 AVERAGE FORCE                      1.099E-05   TIME AVG. FORCE       7.928E-06
 LARGEST SCALED RESIDUAL FORCE      1.718E-04   AT NODE          1   DOF  3
   INSTANCE: PART-1-1                                                                        
  CORRESPONDING RESIDUAL FORCE      1.718E-04
 LARGEST INCREMENT OF DISP.        -4.493E-08   AT NODE         70   DOF  1
   INSTANCE: PART-1-1                                                                        
 LARGEST CORRECTION TO DISP.       -3.380E-06   AT NODE       1147   DOF  2
   INSTANCE: PART-1-1                                                                        
          FORCE     EQUILIBRIUM NOT ACHIEVED WITHIN TOLERANCE.
 
	SYMMETRIC ITERATIVE SOLVER RUNNING ON
 	1 HOST:        16 MPI RANKS x 1 THREAD
 	NUMBER OF EQUATIONS:     4002
 	NUMBER OF RHS:           1
 	KRYLOV METHOD:           CG
 	PRECONDITIONER:          PAMG
 	CONVERGENCE TOL:         1.000e-05
 	MAXIMUM ITERATIONS:      200
 	SETUP TIME:              0.1 SEC
 	APPLY TIME:              0.0 SEC
 
    NUMBER OF MATRIX-VECTOR MULTIPLICATIONS: 74
 
 ITERATIVE SOLVER CONVERGED.
 NUM. ITERATIONS =    7 RELATIVE RESIDUAL NORM =  1.908e-06 RHS NORM =  2.725e-04

               CONVERGENCE CHECKS FOR EQUILIBRIUM ITERATION     2


 AVERAGE FORCE                      1.075E-05   TIME AVG. FORCE       7.880E-06
 LARGEST SCALED RESIDUAL FORCE      1.526E-05   AT NODE          1   DOF  3
   INSTANCE: PART-1-1                                                                        
  CORRESPONDING RESIDUAL FORCE      1.526E-05
 LARGEST INCREMENT OF DISP.         1.198E-07   AT NODE         66   DOF  3
   INSTANCE: PART-1-1                                                                        
 LARGEST CORRECTION TO DISP.        1.109E-07   AT NODE         65   DOF  3
   INSTANCE: PART-1-1                                                                        
          FORCE     EQUILIBRIUM NOT ACHIEVED WITHIN TOLERANCE.
 
	SYMMETRIC ITERATIVE SOLVER RUNNING ON
 	1 HOST:        16 MPI RANKS x 1 THREAD
 	NUMBER OF EQUATIONS:     4002
 	NUMBER OF RHS:           1
 	KRYLOV METHOD:           CG
 	PRECONDITIONER:          PAMG
 	CONVERGENCE TOL:         1.000e-05
 	MAXIMUM ITERATIONS:      200
 	SETUP TIME:              0.1 SEC
 	APPLY TIME:              0.0 SEC
 
    NUMBER OF MATRIX-VECTOR MULTIPLICATIONS: 74
 
 ITERATIVE SOLVER CONVERGED.
 NUM. ITERATIONS =    7 RELATIVE RESIDUAL NORM =  4.532e-06 RHS NORM =  3.053e-05

               CONVERGENCE CHECKS FOR EQUILIBRIUM ITERATION     3


 AVERAGE FORCE                      1.072E-05   TIME AVG. FORCE       7.873E-06
 LARGEST SCALED RESIDUAL FORCE      5.982E-07   AT NODE          1   DOF  3
   INSTANCE: PART-1-1                                                                        
  CORRESPONDING RESIDUAL FORCE      5.982E-07
 LARGEST INCREMENT OF DISP.         1.399E-07   AT NODE         66   DOF  3
   INSTANCE: PART-1-1                                                                        
 LARGEST CORRECTION TO DISP.        2.572E-08   AT NODE        196   DOF  2
   INSTANCE: PART-1-1                                                                        
          FORCE     EQUILIBRIUM NOT ACHIEVED WITHIN TOLERANCE.
 
	SYMMETRIC ITERATIVE SOLVER RUNNING ON
 	1 HOST:        16 MPI RANKS x 1 THREAD
 	NUMBER OF EQUATIONS:     4002
 	NUMBER OF RHS:           1
 	KRYLOV METHOD:           CG
 	PRECONDITIONER:          PAMG
 	CONVERGENCE TOL:         1.000e-05
 	MAXIMUM ITERATIONS:      200
 	SETUP TIME:              0.1 SEC
 	APPLY TIME:              0.0 SEC
 
    NUMBER OF MATRIX-VECTOR MULTIPLICATIONS: 74
 
 ITERATIVE SOLVER CONVERGED.
 NUM. ITERATIONS =    7 RELATIVE RESIDUAL NORM =  4.923e-06 RHS NORM =  1.295e-06

               CONVERGENCE CHECKS FOR EQUILIBRIUM ITERATION     4


 AVERAGE FORCE                      1.072E-05   TIME AVG. FORCE       7.873E-06
 LARGEST SCALED RESIDUAL FORCE      1.211E-09   AT NODE          1   DOF  3
   INSTANCE: PART-1-1                                                                        
  CORRESPONDING RESIDUAL FORCE      1.211E-09
 LARGEST INCREMENT OF DISP.         1.406E-07   AT NODE         66   DOF  3
   INSTANCE: PART-1-1                                                                        
 LARGEST CORRECTION TO DISP.        2.240E-09   AT NODE        196   DOF  2
   INSTANCE: PART-1-1                                                                        
 ESTIMATE OF DISP.    CORRECTION    4.535E-12
 FORCE     EQUILIB. ACCEPTED BASED ON SMALL RESIDUAL AND ESTIMATED CORRECTION
          TIME INCREMENT MAY NOW INCREASE TO    0.225    
          TIME INCREMENT REDUCED TO   0.100     TO MEET NEXT OUTPUT TIME POINT

 ITERATION SUMMARY FOR THE INCREMENT:   4 TOTAL ITERATIONS, OF WHICH
   0 ARE SEVERE DISCONTINUITY ITERATIONS AND  4 ARE EQUILIBRIUM ITERATIONS.

 TIME INCREMENT COMPLETED  0.100    ,  FRACTION OF STEP COMPLETED  9.091E-03
 STEP TIME COMPLETED       0.500    ,  TOTAL TIME COMPLETED        0.500    


  INCREMENT     6 STARTS. ATTEMPT NUMBER  1, TIME INCREMENT  0.100    
 
	SYMMETRIC ITERATIVE SOLVER RUNNING ON
 	1 HOST:        16 MPI RANKS x 1 THREAD
 	NUMBER OF EQUATIONS:     4002
 	NUMBER OF RHS:           1
 	KRYLOV METHOD:           CG
 	PRECONDITIONER:          PAMG
 	CONVERGENCE TOL:         1.000e-05
 	MAXIMUM ITERATIONS:      200
 	SETUP TIME:              0.1 SEC
 	APPLY TIME:              0.0 SEC
 
    NUMBER OF MATRIX-VECTOR MULTIPLICATIONS: 65
 
 ITERATIVE SOLVER CONVERGED.
 NUM. ITERATIONS =    6 RELATIVE RESIDUAL NORM =  7.774e-06 RHS NORM =  2.099e-02

               CONVERGENCE CHECKS FOR EQUILIBRIUM ITERATION     1


 AVERAGE FORCE                      1.718E-05   TIME AVG. FORCE       9.425E-06
 LARGEST SCALED RESIDUAL FORCE     -7.023E-04   AT NODE       1596   DOF  1
   INSTANCE: PART-1-1                                                                        
  CORRESPONDING RESIDUAL FORCE     -7.023E-04
 LARGEST INCREMENT OF DISP.         3.327E-06   AT NODE       1147   DOF  2
   INSTANCE: PART-1-1                                                                        
 LARGEST CORRECTION TO DISP.        3.293E-06   AT NODE       1147   DOF  2
   INSTANCE: PART-1-1                                                                        
          FORCE     EQUILIBRIUM NOT ACHIEVED WITHIN TOLERANCE.
 
	SYMMETRIC ITERATIVE SOLVER RUNNING ON
 	1 HOST:        16 MPI RANKS x 1 THREAD
 	NUMBER OF EQUATIONS:     4002
 	NUMBER OF RHS:           1
 	KRYLOV METHOD:           CG
 	PRECONDITIONER:          PAMG
 	CONVERGENCE TOL:         1.000e-05
 	MAXIMUM ITERATIONS:      200
 	SETUP TIME:              0.1 SEC
 	APPLY TIME:              0.0 SEC
 
    NUMBER OF MATRIX-VECTOR MULTIPLICATIONS: 74
 
 ITERATIVE SOLVER CONVERGED.
 NUM. ITERATIONS =    7 RELATIVE RESIDUAL NORM =  6.426e-06 RHS NORM =  1.078e-03

               CONVERGENCE CHECKS FOR EQUILIBRIUM ITERATION     2


 AVERAGE FORCE                      1.612E-05   TIME AVG. FORCE       9.247E-06
 LARGEST SCALED RESIDUAL FORCE      1.522E-06   AT NODE        490   DOF  2
   INSTANCE: PART-1-1                                                                        
  CORRESPONDING RESIDUAL FORCE      1.522E-06
 LARGEST INCREMENT OF DISP.         3.407E-06   AT NODE       1147   DOF  2
   INSTANCE: PART-1-1                                                                        
 LARGEST CORRECTION TO DISP.        3.842E-07   AT NODE         65   DOF  3
   INSTANCE: PART-1-1                                                                        
          FORCE     EQUILIBRIUM NOT ACHIEVED WITHIN TOLERANCE.
 
	SYMMETRIC ITERATIVE SOLVER RUNNING ON
 	1 HOST:        16 MPI RANKS x 1 THREAD
 	NUMBER OF EQUATIONS:     4002
 	NUMBER OF RHS:           1
 	KRYLOV METHOD:           CG
 	PRECONDITIONER:          PAMG
 	CONVERGENCE TOL:         1.000e-05
 	MAXIMUM ITERATIONS:      200
 	SETUP TIME:              0.1 SEC
 	APPLY TIME:              0.0 SEC
 
    NUMBER OF MATRIX-VECTOR MULTIPLICATIONS: 83
 
 ITERATIVE SOLVER CONVERGED.
 NUM. ITERATIONS =    8 RELATIVE RESIDUAL NORM =  6.134e-06 RHS NORM =  7.061e-06

               CONVERGENCE CHECKS FOR EQUILIBRIUM ITERATION     3


 AVERAGE FORCE                      1.611E-05   TIME AVG. FORCE       9.246E-06
 LARGEST SCALED RESIDUAL FORCE      2.792E-08   AT NODE        478   DOF  1
   INSTANCE: PART-1-1                                                                        
  CORRESPONDING RESIDUAL FORCE      2.792E-08
 LARGEST INCREMENT OF DISP.         3.407E-06   AT NODE       1147   DOF  2
   INSTANCE: PART-1-1                                                                        
 LARGEST CORRECTION TO DISP.        1.384E-08   AT NODE        490   DOF  2
   INSTANCE: PART-1-1                                                                        
          THE FORCE     EQUILIBRIUM EQUATIONS HAVE CONVERGED
          TIME INCREMENT MAY NOW INCREASE TO    0.225    
          TIME INCREMENT REDUCED TO   0.100     TO MEET NEXT OUTPUT TIME POINT

 ITERATION SUMMARY FOR THE INCREMENT:   3 TOTAL ITERATIONS, OF WHICH
   0 ARE SEVERE DISCONTINUITY ITERATIONS AND  3 ARE EQUILIBRIUM ITERATIONS.

 TIME INCREMENT COMPLETED  0.100    ,  FRACTION OF STEP COMPLETED  1.091E-02
 STEP TIME COMPLETED       0.600    ,  TOTAL TIME COMPLETED        0.600    


  INCREMENT     7 STARTS. ATTEMPT NUMBER  1, TIME INCREMENT  0.100    
 
	SYMMETRIC ITERATIVE SOLVER RUNNING ON
 	1 HOST:        16 MPI RANKS x 1 THREAD
 	NUMBER OF EQUATIONS:     4002
 	NUMBER OF RHS:           1
 	KRYLOV METHOD:           CG
 	PRECONDITIONER:          PAMG
 	CONVERGENCE TOL:         1.000e-05
 	MAXIMUM ITERATIONS:      200
 	SETUP TIME:              0.1 SEC
 	APPLY TIME:              0.0 SEC
 
    NUMBER OF MATRIX-VECTOR MULTIPLICATIONS: 83
 
 ITERATIVE SOLVER CONVERGED.
 NUM. ITERATIONS =    8 RELATIVE RESIDUAL NORM =  4.504e-06 RHS NORM =  3.054e-04

               CONVERGENCE CHECKS FOR EQUILIBRIUM ITERATION     1


 AVERAGE FORCE                      2.092E-05   TIME AVG. FORCE       1.091E-05
 LARGEST SCALED RESIDUAL FORCE     -3.744E-07   AT NODE       1717   DOF  1
   INSTANCE: PART-1-1                                                                        
  CORRESPONDING RESIDUAL FORCE     -3.744E-07
 LARGEST INCREMENT OF DISP.         3.460E-06   AT NODE       1147   DOF  2
   INSTANCE: PART-1-1                                                                        
 LARGEST CORRECTION TO DISP.        1.836E-07   AT NODE         66   DOF  3
   INSTANCE: PART-1-1                                                                        
          FORCE     EQUILIBRIUM NOT ACHIEVED WITHIN TOLERANCE.
 
	SYMMETRIC ITERATIVE SOLVER RUNNING ON
 	1 HOST:        16 MPI RANKS x 1 THREAD
 	NUMBER OF EQUATIONS:     4002
 	NUMBER OF RHS:           1
 	KRYLOV METHOD:           CG
 	PRECONDITIONER:          PAMG
 	CONVERGENCE TOL:         1.000e-05
 	MAXIMUM ITERATIONS:      200
 	SETUP TIME:              0.1 SEC
 	APPLY TIME:              0.0 SEC
 
    NUMBER OF MATRIX-VECTOR MULTIPLICATIONS: 92
 
 ITERATIVE SOLVER CONVERGED.
 NUM. ITERATIONS =    9 RELATIVE RESIDUAL NORM =  4.417e-06 RHS NORM =  2.274e-06

               CONVERGENCE CHECKS FOR EQUILIBRIUM ITERATION     2


 AVERAGE FORCE                      2.092E-05   TIME AVG. FORCE       1.091E-05
 LARGEST SCALED RESIDUAL FORCE     -4.014E-09   AT NODE          1   DOF  3
   INSTANCE: PART-1-1                                                                        
  CORRESPONDING RESIDUAL FORCE     -4.014E-09
 LARGEST INCREMENT OF DISP.         3.461E-06   AT NODE       1147   DOF  2
   INSTANCE: PART-1-1                                                                        
 LARGEST CORRECTION TO DISP.       -4.960E-09   AT NODE        989   DOF  2
   INSTANCE: PART-1-1                                                                        
          THE FORCE     EQUILIBRIUM EQUATIONS HAVE CONVERGED
          TIME INCREMENT MAY NOW INCREASE TO    0.225    
          TIME INCREMENT REDUCED TO   0.100     TO MEET NEXT OUTPUT TIME POINT

 ITERATION SUMMARY FOR THE INCREMENT:   2 TOTAL ITERATIONS, OF WHICH
   0 ARE SEVERE DISCONTINUITY ITERATIONS AND  2 ARE EQUILIBRIUM ITERATIONS.

 TIME INCREMENT COMPLETED  0.100    ,  FRACTION OF STEP COMPLETED  1.273E-02
 STEP TIME COMPLETED       0.700    ,  TOTAL TIME COMPLETED        0.700    


  INCREMENT     8 STARTS. ATTEMPT NUMBER  1, TIME INCREMENT  0.100    
 
	SYMMETRIC ITERATIVE SOLVER RUNNING ON
 	1 HOST:        16 MPI RANKS x 1 THREAD
 	NUMBER OF EQUATIONS:     4002
 	NUMBER OF RHS:           1
 	KRYLOV METHOD:           CG
 	PRECONDITIONER:          PAMG
 	CONVERGENCE TOL:         1.000e-05
 	MAXIMUM ITERATIONS:      200
 	SETUP TIME:              0.1 SEC
 	APPLY TIME:              0.0 SEC
 
    NUMBER OF MATRIX-VECTOR MULTIPLICATIONS: 83
 
 ITERATIVE SOLVER CONVERGED.
 NUM. ITERATIONS =    8 RELATIVE RESIDUAL NORM =  2.890e-06 RHS NORM =  2.016e-02

               CONVERGENCE CHECKS FOR EQUILIBRIUM ITERATION     1


 AVERAGE FORCE                      2.057E-05   TIME AVG. FORCE       1.212E-05
 LARGEST SCALED RESIDUAL FORCE      1.575E-04   AT NODE          1   DOF  3
   INSTANCE: PART-1-1                                                                        
  CORRESPONDING RESIDUAL FORCE      1.575E-04
 LARGEST INCREMENT OF DISP.         7.152E-08   AT NODE         66   DOF  3
   INSTANCE: PART-1-1                                                                        
 LARGEST CORRECTION TO DISP.       -3.442E-06   AT NODE       1147   DOF  2
   INSTANCE: PART-1-1                                                                        
          FORCE     EQUILIBRIUM NOT ACHIEVED WITHIN TOLERANCE.
 
	SYMMETRIC ITERATIVE SOLVER RUNNING ON
 	1 HOST:        16 MPI RANKS x 1 THREAD
 	NUMBER OF EQUATIONS:     4002
 	NUMBER OF RHS:           1
 	KRYLOV METHOD:           CG
 	PRECONDITIONER:          PAMG
 	CONVERGENCE TOL:         1.000e-05
 	MAXIMUM ITERATIONS:      200
 	SETUP TIME:              0.1 SEC
 	APPLY TIME:              0.0 SEC
 
    NUMBER OF MATRIX-VECTOR MULTIPLICATIONS: 74
 
 ITERATIVE SOLVER CONVERGED.
 NUM. ITERATIONS =    7 RELATIVE RESIDUAL NORM =  2.705e-06 RHS NORM =  2.552e-04

               CONVERGENCE CHECKS FOR EQUILIBRIUM ITERATION     2


 AVERAGE FORCE                      2.030E-05   TIME AVG. FORCE       1.209E-05
 LARGEST SCALED RESIDUAL FORCE      5.685E-06   AT NODE          1   DOF  3
   INSTANCE: PART-1-1                                                                        
  CORRESPONDING RESIDUAL FORCE      5.685E-06
 LARGEST INCREMENT OF DISP.         1.932E-07   AT NODE         66   DOF  3
   INSTANCE: PART-1-1                                                                        
 LARGEST CORRECTION TO DISP.        1.217E-07   AT NODE         66   DOF  3
   INSTANCE: PART-1-1                                                                        
          FORCE     EQUILIBRIUM NOT ACHIEVED WITHIN TOLERANCE.
 
	SYMMETRIC ITERATIVE SOLVER RUNNING ON
 	1 HOST:        16 MPI RANKS x 1 THREAD
 	NUMBER OF EQUATIONS:     4002
 	NUMBER OF RHS:           1
 	KRYLOV METHOD:           CG
 	PRECONDITIONER:          PAMG
 	CONVERGENCE TOL:         1.000e-05
 	MAXIMUM ITERATIONS:      200
 	SETUP TIME:              0.1 SEC
 	APPLY TIME:              0.0 SEC
 
    NUMBER OF MATRIX-VECTOR MULTIPLICATIONS: 74
 
 ITERATIVE SOLVER CONVERGED.
 NUM. ITERATIONS =    7 RELATIVE RESIDUAL NORM =  6.544e-06 RHS NORM =  1.239e-05

               CONVERGENCE CHECKS FOR EQUILIBRIUM ITERATION     3


 AVERAGE FORCE                      2.028E-05   TIME AVG. FORCE       1.208E-05
 LARGEST SCALED RESIDUAL FORCE      4.683E-08   AT NODE          1   DOF  3
   INSTANCE: PART-1-1                                                                        
  CORRESPONDING RESIDUAL FORCE      4.683E-08
 LARGEST INCREMENT OF DISP.         2.037E-07   AT NODE         66   DOF  3
   INSTANCE: PART-1-1                                                                        
 LARGEST CORRECTION TO DISP.       -1.078E-08   AT NODE        989   DOF  2
   INSTANCE: PART-1-1                                                                        
 ESTIMATE OF DISP.    CORRECTION   -8.883E-11
 FORCE     EQUILIB. ACCEPTED BASED ON SMALL RESIDUAL AND ESTIMATED CORRECTION
          TIME INCREMENT MAY NOW INCREASE TO    0.225    
          TIME INCREMENT REDUCED TO   0.100     TO MEET NEXT OUTPUT TIME POINT

 ITERATION SUMMARY FOR THE INCREMENT:   3 TOTAL ITERATIONS, OF WHICH
   0 ARE SEVERE DISCONTINUITY ITERATIONS AND  3 ARE EQUILIBRIUM ITERATIONS.

 TIME INCREMENT COMPLETED  0.100    ,  FRACTION OF STEP COMPLETED  1.455E-02
 STEP TIME COMPLETED       0.800    ,  TOTAL TIME COMPLETED        0.800    


  INCREMENT     9 STARTS. ATTEMPT NUMBER  1, TIME INCREMENT  0.100    
 
	SYMMETRIC ITERATIVE SOLVER RUNNING ON
 	1 HOST:        16 MPI RANKS x 1 THREAD
 	NUMBER OF EQUATIONS:     4002
 	NUMBER OF RHS:           1
 	KRYLOV METHOD:           CG
 	PRECONDITIONER:          PAMG
 	CONVERGENCE TOL:         1.000e-05
 	MAXIMUM ITERATIONS:      200
 	SETUP TIME:              0.1 SEC
 	APPLY TIME:              0.0 SEC
 
    NUMBER OF MATRIX-VECTOR MULTIPLICATIONS: 65
 
 ITERATIVE SOLVER CONVERGED.
 NUM. ITERATIONS =    6 RELATIVE RESIDUAL NORM =  8.902e-06 RHS NORM =  2.083e-02

               CONVERGENCE CHECKS FOR EQUILIBRIUM ITERATION     1


 AVERAGE FORCE                      2.636E-05   TIME AVG. FORCE       1.367E-05
 LARGEST SCALED RESIDUAL FORCE      6.059E-04   AT NODE          1   DOF  3
   INSTANCE: PART-1-1                                                                        
  CORRESPONDING RESIDUAL FORCE      6.059E-04
 LARGEST INCREMENT OF DISP.         3.371E-06   AT NODE       1147   DOF  2
   INSTANCE: PART-1-1                                                                        
 LARGEST CORRECTION TO DISP.        3.315E-06   AT NODE       1147   DOF  2
   INSTANCE: PART-1-1                                                                        
          FORCE     EQUILIBRIUM NOT ACHIEVED WITHIN TOLERANCE.
 
	SYMMETRIC ITERATIVE SOLVER RUNNING ON
 	1 HOST:        16 MPI RANKS x 1 THREAD
 	NUMBER OF EQUATIONS:     4002
 	NUMBER OF RHS:           1
 	KRYLOV METHOD:           CG
 	PRECONDITIONER:          PAMG
 	CONVERGENCE TOL:         1.000e-05
 	MAXIMUM ITERATIONS:      200
 	SETUP TIME:              0.1 SEC
 	APPLY TIME:              0.0 SEC
 
    NUMBER OF MATRIX-VECTOR MULTIPLICATIONS: 74
 
 ITERATIVE SOLVER CONVERGED.
 NUM. ITERATIONS =    7 RELATIVE RESIDUAL NORM =  7.155e-06 RHS NORM =  9.275e-04

               CONVERGENCE CHECKS FOR EQUILIBRIUM ITERATION     2


 AVERAGE FORCE                      2.550E-05   TIME AVG. FORCE       1.358E-05
 LARGEST SCALED RESIDUAL FORCE     -2.573E-06   AT NODE       1596   DOF  1
   INSTANCE: PART-1-1                                                                        
  CORRESPONDING RESIDUAL FORCE     -2.573E-06
 LARGEST INCREMENT OF DISP.         3.431E-06   AT NODE       1147   DOF  2
   INSTANCE: PART-1-1                                                                        
 LARGEST CORRECTION TO DISP.        3.084E-07   AT NODE         64   DOF  3
   INSTANCE: PART-1-1                                                                        
          FORCE     EQUILIBRIUM NOT ACHIEVED WITHIN TOLERANCE.
 
	SYMMETRIC ITERATIVE SOLVER RUNNING ON
 	1 HOST:        16 MPI RANKS x 1 THREAD
 	NUMBER OF EQUATIONS:     4002
 	NUMBER OF RHS:           1
 	KRYLOV METHOD:           CG
 	PRECONDITIONER:          PAMG
 	CONVERGENCE TOL:         1.000e-05
 	MAXIMUM ITERATIONS:      200
 	SETUP TIME:              0.1 SEC
 	APPLY TIME:              0.0 SEC
 
    NUMBER OF MATRIX-VECTOR MULTIPLICATIONS: 83
 
 ITERATIVE SOLVER CONVERGED.
 NUM. ITERATIONS =    8 RELATIVE RESIDUAL NORM =  8.638e-06 RHS NORM =  9.229e-06

               CONVERGENCE CHECKS FOR EQUILIBRIUM ITERATION     3


 AVERAGE FORCE                      2.550E-05   TIME AVG. FORCE       1.357E-05
 LARGEST SCALED RESIDUAL FORCE      2.437E-08   AT NODE        760   DOF  2
   INSTANCE: PART-1-1                                                                        
  CORRESPONDING RESIDUAL FORCE      2.437E-08
 LARGEST INCREMENT OF DISP.         3.431E-06   AT NODE       1147   DOF  2
   INSTANCE: PART-1-1                                                                        
 LARGEST CORRECTION TO DISP.       -1.036E-08   AT NODE        393   DOF  3
   INSTANCE: PART-1-1                                                                        
          THE FORCE     EQUILIBRIUM EQUATIONS HAVE CONVERGED
          TIME INCREMENT MAY NOW INCREASE TO    0.225    
          TIME INCREMENT REDUCED TO   0.100     TO MEET NEXT OUTPUT TIME POINT

 ITERATION SUMMARY FOR THE INCREMENT:   3 TOTAL ITERATIONS, OF WHICH
   0 ARE SEVERE DISCONTINUITY ITERATIONS AND  3 ARE EQUILIBRIUM ITERATIONS.

 TIME INCREMENT COMPLETED  0.100    ,  FRACTION OF STEP COMPLETED  1.636E-02
 STEP TIME COMPLETED       0.900    ,  TOTAL TIME COMPLETED        0.900    


  INCREMENT    10 STARTS. ATTEMPT NUMBER  1, TIME INCREMENT  0.100    
 
	SYMMETRIC ITERATIVE SOLVER RUNNING ON
 	1 HOST:        16 MPI RANKS x 1 THREAD
 	NUMBER OF EQUATIONS:     4002
 	NUMBER OF RHS:           1
 	KRYLOV METHOD:           CG
 	PRECONDITIONER:          PAMG
 	CONVERGENCE TOL:         1.000e-05
 	MAXIMUM ITERATIONS:      200
 	SETUP TIME:              0.1 SEC
 	APPLY TIME:              0.0 SEC
 
    NUMBER OF MATRIX-VECTOR MULTIPLICATIONS: 83
 
 ITERATIVE SOLVER CONVERGED.
 NUM. ITERATIONS =    8 RELATIVE RESIDUAL NORM =  4.307e-06 RHS NORM =  3.477e-04

               CONVERGENCE CHECKS FOR EQUILIBRIUM ITERATION     1


 AVERAGE FORCE                      3.009E-05   TIME AVG. FORCE       1.523E-05
 LARGEST SCALED RESIDUAL FORCE      4.274E-07   AT NODE       1717   DOF  3
   INSTANCE: PART-1-1                                                                        
  CORRESPONDING RESIDUAL FORCE      4.274E-07
 LARGEST INCREMENT OF DISP.         3.498E-06   AT NODE       1147   DOF  2
   INSTANCE: PART-1-1                                                                        
 LARGEST CORRECTION TO DISP.        2.142E-07   AT NODE         66   DOF  3
   INSTANCE: PART-1-1                                                                        
          FORCE     EQUILIBRIUM NOT ACHIEVED WITHIN TOLERANCE.
 
	SYMMETRIC ITERATIVE SOLVER RUNNING ON
 	1 HOST:        16 MPI RANKS x 1 THREAD
 	NUMBER OF EQUATIONS:     4002
 	NUMBER OF RHS:           1
 	KRYLOV METHOD:           CG
 	PRECONDITIONER:          PAMG
 	CONVERGENCE TOL:         1.000e-05
 	MAXIMUM ITERATIONS:      200
 	SETUP TIME:              0.1 SEC
 	APPLY TIME:              0.0 SEC
 
    NUMBER OF MATRIX-VECTOR MULTIPLICATIONS: 92
 
 ITERATIVE SOLVER CONVERGED.
 NUM. ITERATIONS =    9 RELATIVE RESIDUAL NORM =  4.658e-06 RHS NORM =  2.585e-06

               CONVERGENCE CHECKS FOR EQUILIBRIUM ITERATION     2


 AVERAGE FORCE                      3.008E-05   TIME AVG. FORCE       1.523E-05
 LARGEST SCALED RESIDUAL FORCE     -6.223E-09   AT NODE          1   DOF  3
   INSTANCE: PART-1-1                                                                        
  CORRESPONDING RESIDUAL FORCE     -6.223E-09
 LARGEST INCREMENT OF DISP.         3.499E-06   AT NODE       1147   DOF  2
   INSTANCE: PART-1-1                                                                        
 LARGEST CORRECTION TO DISP.       -6.687E-09   AT NODE        989   DOF  2
   INSTANCE: PART-1-1                                                                        
          THE FORCE     EQUILIBRIUM EQUATIONS HAVE CONVERGED
          TIME INCREMENT MAY NOW INCREASE TO    0.225    
          TIME INCREMENT REDUCED TO   0.100     TO MEET NEXT OUTPUT TIME POINT

 ITERATION SUMMARY FOR THE INCREMENT:   2 TOTAL ITERATIONS, OF WHICH
   0 ARE SEVERE DISCONTINUITY ITERATIONS AND  2 ARE EQUILIBRIUM ITERATIONS.

 TIME INCREMENT COMPLETED  0.100    ,  FRACTION OF STEP COMPLETED  1.818E-02
 STEP TIME COMPLETED        1.00    ,  TOTAL TIME COMPLETED         1.00    


  INCREMENT    11 STARTS. ATTEMPT NUMBER  1, TIME INCREMENT  0.100    
 
	SYMMETRIC ITERATIVE SOLVER RUNNING ON
 	1 HOST:        16 MPI RANKS x 1 THREAD
 	NUMBER OF EQUATIONS:     4002
 	NUMBER OF RHS:           1
 	KRYLOV METHOD:           CG
 	PRECONDITIONER:          PAMG
 	CONVERGENCE TOL:         1.000e-05
 	MAXIMUM ITERATIONS:      200
 	SETUP TIME:              0.1 SEC
 	APPLY TIME:              0.0 SEC
 
    NUMBER OF MATRIX-VECTOR MULTIPLICATIONS: 92
 
 ITERATIVE SOLVER CONVERGED.
 NUM. ITERATIONS =    9 RELATIVE RESIDUAL NORM =  2.658e-06 RHS NORM =  4.995e-05

               CONVERGENCE CHECKS FOR EQUILIBRIUM ITERATION     1


 AVERAGE FORCE                      3.451E-05   TIME AVG. FORCE       1.698E-05
 LARGEST SCALED RESIDUAL FORCE      2.072E-07   AT NODE        183   DOF  3
   INSTANCE: PART-1-1                                                                        
  CORRESPONDING RESIDUAL FORCE      2.072E-07
 LARGEST INCREMENT OF DISP.         3.525E-06   AT NODE       1147   DOF  2
   INSTANCE: PART-1-1                                                                        
 LARGEST CORRECTION TO DISP.       -9.751E-08   AT NODE        989   DOF  2
   INSTANCE: PART-1-1                                                                        
          FORCE     EQUILIBRIUM NOT ACHIEVED WITHIN TOLERANCE.
 
	SYMMETRIC ITERATIVE SOLVER RUNNING ON
 	1 HOST:        16 MPI RANKS x 1 THREAD
 	NUMBER OF EQUATIONS:     4002
 	NUMBER OF RHS:           1
 	KRYLOV METHOD:           CG
 	PRECONDITIONER:          PAMG
 	CONVERGENCE TOL:         1.000e-05
 	MAXIMUM ITERATIONS:      200
 	SETUP TIME:              0.1 SEC
 	APPLY TIME:              0.0 SEC
 
    NUMBER OF MATRIX-VECTOR MULTIPLICATIONS: 92
 
 ITERATIVE SOLVER CONVERGED.
 NUM. ITERATIONS =    9 RELATIVE RESIDUAL NORM =  3.421e-06 RHS NORM =  8.005e-07

               CONVERGENCE CHECKS FOR EQUILIBRIUM ITERATION     2


 AVERAGE FORCE                      3.451E-05   TIME AVG. FORCE       1.698E-05
 LARGEST SCALED RESIDUAL FORCE     -1.633E-09   AT NODE          1   DOF  3
   INSTANCE: PART-1-1                                                                        
  CORRESPONDING RESIDUAL FORCE     -1.633E-09
 LARGEST INCREMENT OF DISP.         3.526E-06   AT NODE       1147   DOF  2
   INSTANCE: PART-1-1                                                                        
 LARGEST CORRECTION TO DISP.        1.659E-09   AT NODE        195   DOF  2
   INSTANCE: PART-1-1                                                                        
          THE FORCE     EQUILIBRIUM EQUATIONS HAVE CONVERGED
          TIME INCREMENT MAY NOW INCREASE TO    0.225    
          TIME INCREMENT REDUCED TO   0.100     TO MEET NEXT OUTPUT TIME POINT

 ITERATION SUMMARY FOR THE INCREMENT:   2 TOTAL ITERATIONS, OF WHICH
   0 ARE SEVERE DISCONTINUITY ITERATIONS AND  2 ARE EQUILIBRIUM ITERATIONS.

 TIME INCREMENT COMPLETED  0.100    ,  FRACTION OF STEP COMPLETED  2.000E-02
 STEP TIME COMPLETED        1.10    ,  TOTAL TIME COMPLETED         1.10    


  INCREMENT    12 STARTS. ATTEMPT NUMBER  1, TIME INCREMENT  0.100    
 
	SYMMETRIC ITERATIVE SOLVER RUNNING ON
 	1 HOST:        16 MPI RANKS x 1 THREAD
 	NUMBER OF EQUATIONS:     4002
 	NUMBER OF RHS:           1
 	KRYLOV METHOD:           CG
 	PRECONDITIONER:          PAMG
 	CONVERGENCE TOL:         1.000e-05
 	MAXIMUM ITERATIONS:      200
 	SETUP TIME:              0.1 SEC
 	APPLY TIME:              0.0 SEC
 
    NUMBER OF MATRIX-VECTOR MULTIPLICATIONS: 92
 
 ITERATIVE SOLVER CONVERGED.
 NUM. ITERATIONS =    9 RELATIVE RESIDUAL NORM =  2.568e-06 RHS NORM =  7.409e-05

               CONVERGENCE CHECKS FOR EQUILIBRIUM ITERATION     1


 AVERAGE FORCE                      3.875E-05   TIME AVG. FORCE       1.879E-05
 LARGEST SCALED RESIDUAL FORCE     -3.044E-07   AT NODE        842   DOF  2
   INSTANCE: PART-1-1                                                                        
  CORRESPONDING RESIDUAL FORCE     -3.044E-07
 LARGEST INCREMENT OF DISP.         3.551E-06   AT NODE       1148   DOF  2
   INSTANCE: PART-1-1                                                                        
 LARGEST CORRECTION TO DISP.        1.302E-07   AT NODE       1259   DOF  2
   INSTANCE: PART-1-1                                                                        
          FORCE     EQUILIBRIUM NOT ACHIEVED WITHIN TOLERANCE.
 
	SYMMETRIC ITERATIVE SOLVER RUNNING ON
 	1 HOST:        16 MPI RANKS x 1 THREAD
 	NUMBER OF EQUATIONS:     4002
 	NUMBER OF RHS:           1
 	KRYLOV METHOD:           CG
 	PRECONDITIONER:          PAMG
 	CONVERGENCE TOL:         1.000e-05
 	MAXIMUM ITERATIONS:      200
 	SETUP TIME:              0.1 SEC
 	APPLY TIME:              0.0 SEC
 
    NUMBER OF MATRIX-VECTOR MULTIPLICATIONS: 92
 
 ITERATIVE SOLVER CONVERGED.
 NUM. ITERATIONS =    9 RELATIVE RESIDUAL NORM =  2.864e-06 RHS NORM =  1.121e-06

               CONVERGENCE CHECKS FOR EQUILIBRIUM ITERATION     2


 AVERAGE FORCE                      3.875E-05   TIME AVG. FORCE       1.879E-05
 LARGEST SCALED RESIDUAL FORCE     -1.382E-09   AT NODE          1   DOF  3
   INSTANCE: PART-1-1                                                                        
  CORRESPONDING RESIDUAL FORCE     -1.382E-09
 LARGEST INCREMENT OF DISP.         3.552E-06   AT NODE       1148   DOF  2
   INSTANCE: PART-1-1                                                                        
 LARGEST CORRECTION TO DISP.       -2.793E-09   AT NODE        842   DOF  2
   INSTANCE: PART-1-1                                                                        
          THE FORCE     EQUILIBRIUM EQUATIONS HAVE CONVERGED
          TIME INCREMENT MAY NOW INCREASE TO    0.225    
          TIME INCREMENT REDUCED TO   0.100     TO MEET NEXT OUTPUT TIME POINT

 ITERATION SUMMARY FOR THE INCREMENT:   2 TOTAL ITERATIONS, OF WHICH
   0 ARE SEVERE DISCONTINUITY ITERATIONS AND  2 ARE EQUILIBRIUM ITERATIONS.

 TIME INCREMENT COMPLETED  0.100    ,  FRACTION OF STEP COMPLETED  2.182E-02
 STEP TIME COMPLETED        1.20    ,  TOTAL TIME COMPLETED         1.20    


  INCREMENT    13 STARTS. ATTEMPT NUMBER  1, TIME INCREMENT  0.100    
 
	SYMMETRIC ITERATIVE SOLVER RUNNING ON
 	1 HOST:        16 MPI RANKS x 1 THREAD
 	NUMBER OF EQUATIONS:     4002
 	NUMBER OF RHS:           1
 	KRYLOV METHOD:           CG
 	PRECONDITIONER:          PAMG
 	CONVERGENCE TOL:         1.000e-05
 	MAXIMUM ITERATIONS:      200
 	SETUP TIME:              0.1 SEC
 	APPLY TIME:              0.0 SEC
 
    NUMBER OF MATRIX-VECTOR MULTIPLICATIONS: 83
 
 ITERATIVE SOLVER CONVERGED.
 NUM. ITERATIONS =    8 RELATIVE RESIDUAL NORM =  2.996e-06 RHS NORM =  2.011e-02
 

 ***NOTE: USER SUBROUTINE REQUESTS A TIME INCREMENT CHANGE.


  INCREMENT    13 STARTS. ATTEMPT NUMBER  2, TIME INCREMENT  5.000E-02
 
	SYMMETRIC ITERATIVE SOLVER RUNNING ON
 	1 HOST:        16 MPI RANKS x 1 THREAD
 	NUMBER OF EQUATIONS:     4002
 	NUMBER OF RHS:           1
 	KRYLOV METHOD:           CG
 	PRECONDITIONER:          PAMG
 	CONVERGENCE TOL:         1.000e-05
 	MAXIMUM ITERATIONS:      200
 	SETUP TIME:              0.1 SEC
 	APPLY TIME:              0.0 SEC
 
    NUMBER OF MATRIX-VECTOR MULTIPLICATIONS: 74
 
 ITERATIVE SOLVER CONVERGED.
 NUM. ITERATIONS =    7 RELATIVE RESIDUAL NORM =  2.754e-06 RHS NORM =  1.016e-02

               CONVERGENCE CHECKS FOR EQUILIBRIUM ITERATION     1


 AVERAGE FORCE                      4.363E-05   TIME AVG. FORCE       2.070E-05
 LARGEST SCALED RESIDUAL FORCE      3.548E-05   AT NODE          1   DOF  3
   INSTANCE: PART-1-1                                                                        
  CORRESPONDING RESIDUAL FORCE      3.548E-05
 LARGEST INCREMENT OF DISP.         3.500E-06   AT NODE       1148   DOF  2
   INSTANCE: PART-1-1                                                                        
 LARGEST CORRECTION TO DISP.        1.724E-06   AT NODE       1148   DOF  2
   INSTANCE: PART-1-1                                                                        
          FORCE     EQUILIBRIUM NOT ACHIEVED WITHIN TOLERANCE.
 
	SYMMETRIC ITERATIVE SOLVER RUNNING ON
 	1 HOST:        16 MPI RANKS x 1 THREAD
 	NUMBER OF EQUATIONS:     4002
 	NUMBER OF RHS:           1
 	KRYLOV METHOD:           CG
 	PRECONDITIONER:          PAMG
 	CONVERGENCE TOL:         1.000e-05
 	MAXIMUM ITERATIONS:      200
 	SETUP TIME:              0.1 SEC
 	APPLY TIME:              0.0 SEC
 
    NUMBER OF MATRIX-VECTOR MULTIPLICATIONS: 74
 
 ITERATIVE SOLVER CONVERGED.
 NUM. ITERATIONS =    7 RELATIVE RESIDUAL NORM =  7.671e-06 RHS NORM =  5.798e-05

               CONVERGENCE CHECKS FOR EQUILIBRIUM ITERATION     2


 AVERAGE FORCE                      4.356E-05   TIME AVG. FORCE       2.070E-05
 LARGEST SCALED RESIDUAL FORCE      6.212E-08   AT NODE       1336   DOF  2
   INSTANCE: PART-1-1                                                                        
  CORRESPONDING RESIDUAL FORCE      6.212E-08
 LARGEST INCREMENT OF DISP.         3.513E-06   AT NODE       1148   DOF  2
   INSTANCE: PART-1-1                                                                        
 LARGEST CORRECTION TO DISP.        3.382E-08   AT NODE       1336   DOF  2
   INSTANCE: PART-1-1                                                                        
          THE FORCE     EQUILIBRIUM EQUATIONS HAVE CONVERGED
          TIME INCREMENT MAY NOW INCREASE TO    7.500E-02
          TIME INCREMENT REDUCED TO   5.000E-02 TO MEET NEXT OUTPUT TIME POINT

 ITERATION SUMMARY FOR THE INCREMENT:   2 TOTAL ITERATIONS, OF WHICH
   0 ARE SEVERE DISCONTINUITY ITERATIONS AND  2 ARE EQUILIBRIUM ITERATIONS.

 TIME INCREMENT COMPLETED  5.000E-02,  FRACTION OF STEP COMPLETED  2.273E-02
 STEP TIME COMPLETED        1.25    ,  TOTAL TIME COMPLETED         1.25    


  INCREMENT    14 STARTS. ATTEMPT NUMBER  1, TIME INCREMENT  5.000E-02
 
	SYMMETRIC ITERATIVE SOLVER RUNNING ON
 	1 HOST:        16 MPI RANKS x 1 THREAD
 	NUMBER OF EQUATIONS:     4002
 	NUMBER OF RHS:           1
 	KRYLOV METHOD:           CG
 	PRECONDITIONER:          PAMG
 	CONVERGENCE TOL:         1.000e-05
 	MAXIMUM ITERATIONS:      200
 	SETUP TIME:              0.1 SEC
 	APPLY TIME:              0.0 SEC
 
    NUMBER OF MATRIX-VECTOR MULTIPLICATIONS: 83
 
 ITERATIVE SOLVER CONVERGED.
 NUM. ITERATIONS =    8 RELATIVE RESIDUAL NORM =  2.196e-06 RHS NORM =  3.107e-04

               CONVERGENCE CHECKS FOR EQUILIBRIUM ITERATION     1


 AVERAGE FORCE                      4.763E-05   TIME AVG. FORCE       2.262E-05
 LARGEST SCALED RESIDUAL FORCE     -8.606E-07   AT NODE       1717   DOF  1
   INSTANCE: PART-1-1                                                                        
  CORRESPONDING RESIDUAL FORCE     -8.606E-07
 LARGEST INCREMENT OF DISP.         3.621E-06   AT NODE       1148   DOF  2
   INSTANCE: PART-1-1                                                                        
 LARGEST CORRECTION TO DISP.        2.470E-07   AT NODE         65   DOF  3
   INSTANCE: PART-1-1                                                                        
          FORCE     EQUILIBRIUM NOT ACHIEVED WITHIN TOLERANCE.
 
	SYMMETRIC ITERATIVE SOLVER RUNNING ON
 	1 HOST:        16 MPI RANKS x 1 THREAD
 	NUMBER OF EQUATIONS:     4002
 	NUMBER OF RHS:           1
 	KRYLOV METHOD:           CG
 	PRECONDITIONER:          PAMG
 	CONVERGENCE TOL:         1.000e-05
 	MAXIMUM ITERATIONS:      200
 	SETUP TIME:              0.1 SEC
 	APPLY TIME:              0.0 SEC
 
    NUMBER OF MATRIX-VECTOR MULTIPLICATIONS: 83
 
 ITERATIVE SOLVER CONVERGED.
 NUM. ITERATIONS =    8 RELATIVE RESIDUAL NORM =  6.725e-06 RHS NORM =  5.030e-06

               CONVERGENCE CHECKS FOR EQUILIBRIUM ITERATION     2


 AVERAGE FORCE                      4.762E-05   TIME AVG. FORCE       2.262E-05
 LARGEST SCALED RESIDUAL FORCE     -1.027E-08   AT NODE          1   DOF  3
   INSTANCE: PART-1-1                                                                        
  CORRESPONDING RESIDUAL FORCE     -1.027E-08
 LARGEST INCREMENT OF DISP.         3.623E-06   AT NODE       1148   DOF  2
   INSTANCE: PART-1-1                                                                        
 LARGEST CORRECTION TO DISP.       -7.983E-09   AT NODE        989   DOF  2
   INSTANCE: PART-1-1                                                                        
          THE FORCE     EQUILIBRIUM EQUATIONS HAVE CONVERGED
          TIME INCREMENT MAY NOW INCREASE TO    0.100    

 ITERATION SUMMARY FOR THE INCREMENT:   2 TOTAL ITERATIONS, OF WHICH
   0 ARE SEVERE DISCONTINUITY ITERATIONS AND  2 ARE EQUILIBRIUM ITERATIONS.

 TIME INCREMENT COMPLETED  5.000E-02,  FRACTION OF STEP COMPLETED  2.364E-02
 STEP TIME COMPLETED        1.30    ,  TOTAL TIME COMPLETED         1.30    


  INCREMENT    15 STARTS. ATTEMPT NUMBER  1, TIME INCREMENT  0.100    
 
	SYMMETRIC ITERATIVE SOLVER RUNNING ON
 	1 HOST:        16 MPI RANKS x 1 THREAD
 	NUMBER OF EQUATIONS:     4002
 	NUMBER OF RHS:           1
 	KRYLOV METHOD:           CG
 	PRECONDITIONER:          PAMG
 	CONVERGENCE TOL:         1.000e-05
 	MAXIMUM ITERATIONS:      200
 	SETUP TIME:              0.1 SEC
 	APPLY TIME:              0.0 SEC
 
    NUMBER OF MATRIX-VECTOR MULTIPLICATIONS: 83
 
 ITERATIVE SOLVER CONVERGED.
 NUM. ITERATIONS =    8 RELATIVE RESIDUAL NORM =  6.441e-06 RHS NORM =  1.959e-02

               CONVERGENCE CHECKS FOR EQUILIBRIUM ITERATION     1


 AVERAGE FORCE                      5.038E-05   TIME AVG. FORCE       2.447E-05
 LARGEST SCALED RESIDUAL FORCE      8.017E-05   AT NODE          1   DOF  3
   INSTANCE: PART-1-1                                                                        
  CORRESPONDING RESIDUAL FORCE      8.017E-05
 LARGEST INCREMENT OF DISP.         3.848E-06   AT NODE       1148   DOF  2
   INSTANCE: PART-1-1                                                                        
 LARGEST CORRECTION TO DISP.       -3.414E-06   AT NODE       1000   DOF  2
   INSTANCE: PART-1-1                                                                        
          FORCE     EQUILIBRIUM NOT ACHIEVED WITHIN TOLERANCE.
 
	SYMMETRIC ITERATIVE SOLVER RUNNING ON
 	1 HOST:        16 MPI RANKS x 1 THREAD
 	NUMBER OF EQUATIONS:     4002
 	NUMBER OF RHS:           1
 	KRYLOV METHOD:           CG
 	PRECONDITIONER:          PAMG
 	CONVERGENCE TOL:         1.000e-05
 	MAXIMUM ITERATIONS:      200
 	SETUP TIME:              0.1 SEC
 	APPLY TIME:              0.0 SEC
 
    NUMBER OF MATRIX-VECTOR MULTIPLICATIONS: 83
 
 ITERATIVE SOLVER CONVERGED.
 NUM. ITERATIONS =    8 RELATIVE RESIDUAL NORM =  6.351e-06 RHS NORM =  1.292e-04

               CONVERGENCE CHECKS FOR EQUILIBRIUM ITERATION     2


 AVERAGE FORCE                      5.033E-05   TIME AVG. FORCE       2.447E-05
 LARGEST SCALED RESIDUAL FORCE      2.507E-07   AT NODE          1   DOF  3
   INSTANCE: PART-1-1                                                                        
  CORRESPONDING RESIDUAL FORCE      2.507E-07
 LARGEST INCREMENT OF DISP.         3.846E-06   AT NODE       1148   DOF  2
   INSTANCE: PART-1-1                                                                        
 LARGEST CORRECTION TO DISP.        4.956E-08   AT NODE        989   DOF  2
   INSTANCE: PART-1-1                                                                        
          FORCE     EQUILIBRIUM NOT ACHIEVED WITHIN TOLERANCE.
 
	SYMMETRIC ITERATIVE SOLVER RUNNING ON
 	1 HOST:        16 MPI RANKS x 1 THREAD
 	NUMBER OF EQUATIONS:     4002
 	NUMBER OF RHS:           1
 	KRYLOV METHOD:           CG
 	PRECONDITIONER:          PAMG
 	CONVERGENCE TOL:         1.000e-05
 	MAXIMUM ITERATIONS:      200
 	SETUP TIME:              0.1 SEC
 	APPLY TIME:              0.0 SEC
 
    NUMBER OF MATRIX-VECTOR MULTIPLICATIONS: 83
 
 ITERATIVE SOLVER CONVERGED.
 NUM. ITERATIONS =    8 RELATIVE RESIDUAL NORM =  8.279e-06 RHS NORM =  9.045e-07

               CONVERGENCE CHECKS FOR EQUILIBRIUM ITERATION     3


 AVERAGE FORCE                      5.033E-05   TIME AVG. FORCE       2.447E-05
 LARGEST SCALED RESIDUAL FORCE      4.148E-10   AT NODE       1342   DOF  3
   INSTANCE: PART-1-1                                                                        
  CORRESPONDING RESIDUAL FORCE      4.148E-10
 LARGEST INCREMENT OF DISP.         3.847E-06   AT NODE       1148   DOF  2
   INSTANCE: PART-1-1                                                                        
 LARGEST CORRECTION TO DISP.        1.310E-09   AT NODE       1330   DOF  2
   INSTANCE: PART-1-1                                                                        
          THE FORCE     EQUILIBRIUM EQUATIONS HAVE CONVERGED
          TIME INCREMENT MAY NOW INCREASE TO    0.150    
          TIME INCREMENT REDUCED TO   0.100     TO MEET NEXT OUTPUT TIME POINT

 ITERATION SUMMARY FOR THE INCREMENT:   3 TOTAL ITERATIONS, OF WHICH
   0 ARE SEVERE DISCONTINUITY ITERATIONS AND  3 ARE EQUILIBRIUM ITERATIONS.

 TIME INCREMENT COMPLETED  0.100    ,  FRACTION OF STEP COMPLETED  2.545E-02
 STEP TIME COMPLETED        1.40    ,  TOTAL TIME COMPLETED         1.40    


  INCREMENT    16 STARTS. ATTEMPT NUMBER  1, TIME INCREMENT  0.100    
 
	SYMMETRIC ITERATIVE SOLVER RUNNING ON
 	1 HOST:        16 MPI RANKS x 1 THREAD
 	NUMBER OF EQUATIONS:     4002
 	NUMBER OF RHS:           1
 	KRYLOV METHOD:           CG
 	PRECONDITIONER:          PAMG
 	CONVERGENCE TOL:         1.000e-05
 	MAXIMUM ITERATIONS:      200
 	SETUP TIME:              0.1 SEC
 	APPLY TIME:              0.0 SEC
 
    NUMBER OF MATRIX-VECTOR MULTIPLICATIONS: 83
 
 ITERATIVE SOLVER CONVERGED.
 NUM. ITERATIONS =    8 RELATIVE RESIDUAL NORM =  3.291e-06 RHS NORM =  1.968e-02
 

 ***NOTE: USER SUBROUTINE REQUESTS A TIME INCREMENT CHANGE.


  INCREMENT    16 STARTS. ATTEMPT NUMBER  2, TIME INCREMENT  5.000E-02
 
	SYMMETRIC ITERATIVE SOLVER RUNNING ON
 	1 HOST:        16 MPI RANKS x 1 THREAD
 	NUMBER OF EQUATIONS:     4002
 	NUMBER OF RHS:           1
 	KRYLOV METHOD:           CG
 	PRECONDITIONER:          PAMG
 	CONVERGENCE TOL:         1.000e-05
 	MAXIMUM ITERATIONS:      200
 	SETUP TIME:              0.1 SEC
 	APPLY TIME:              0.0 SEC
 
    NUMBER OF MATRIX-VECTOR MULTIPLICATIONS: 74
 
 ITERATIVE SOLVER CONVERGED.
 NUM. ITERATIONS =    7 RELATIVE RESIDUAL NORM =  3.090e-06 RHS NORM =  9.976e-03

               CONVERGENCE CHECKS FOR EQUILIBRIUM ITERATION     1


 AVERAGE FORCE                      5.438E-05   TIME AVG. FORCE       2.634E-05
 LARGEST SCALED RESIDUAL FORCE      4.539E-05   AT NODE          1   DOF  3
   INSTANCE: PART-1-1                                                                        
  CORRESPONDING RESIDUAL FORCE      4.539E-05
 LARGEST INCREMENT OF DISP.         3.654E-06   AT NODE       1148   DOF  2
   INSTANCE: PART-1-1                                                                        
 LARGEST CORRECTION TO DISP.        1.731E-06   AT NODE       1147   DOF  2
   INSTANCE: PART-1-1                                                                        
          FORCE     EQUILIBRIUM NOT ACHIEVED WITHIN TOLERANCE.
 
	SYMMETRIC ITERATIVE SOLVER RUNNING ON
 	1 HOST:        16 MPI RANKS x 1 THREAD
 	NUMBER OF EQUATIONS:     4002
 	NUMBER OF RHS:           1
 	KRYLOV METHOD:           CG
 	PRECONDITIONER:          PAMG
 	CONVERGENCE TOL:         1.000e-05
 	MAXIMUM ITERATIONS:      200
 	SETUP TIME:              0.1 SEC
 	APPLY TIME:              0.0 SEC
 
    NUMBER OF MATRIX-VECTOR MULTIPLICATIONS: 74
 
 ITERATIVE SOLVER CONVERGED.
 NUM. ITERATIONS =    7 RELATIVE RESIDUAL NORM =  6.476e-06 RHS NORM =  7.175e-05

               CONVERGENCE CHECKS FOR EQUILIBRIUM ITERATION     2


 AVERAGE FORCE                      5.432E-05   TIME AVG. FORCE       2.633E-05
 LARGEST SCALED RESIDUAL FORCE     -6.328E-08   AT NODE       1425   DOF  1
   INSTANCE: PART-1-1                                                                        
  CORRESPONDING RESIDUAL FORCE     -6.328E-08
 LARGEST INCREMENT OF DISP.         3.663E-06   AT NODE       1148   DOF  2
   INSTANCE: PART-1-1                                                                        
 LARGEST CORRECTION TO DISP.        2.738E-08   AT NODE        105   DOF  3
   INSTANCE: PART-1-1                                                                        
          THE FORCE     EQUILIBRIUM EQUATIONS HAVE CONVERGED
          TIME INCREMENT MAY NOW INCREASE TO    5.000E-02

 ITERATION SUMMARY FOR THE INCREMENT:   2 TOTAL ITERATIONS, OF WHICH
   0 ARE SEVERE DISCONTINUITY ITERATIONS AND  2 ARE EQUILIBRIUM ITERATIONS.

 TIME INCREMENT COMPLETED  5.000E-02,  FRACTION OF STEP COMPLETED  2.636E-02
 STEP TIME COMPLETED        1.45    ,  TOTAL TIME COMPLETED         1.45    


  INCREMENT    17 STARTS. ATTEMPT NUMBER  1, TIME INCREMENT  5.000E-02
 
	SYMMETRIC ITERATIVE SOLVER RUNNING ON
 	1 HOST:        16 MPI RANKS x 1 THREAD
 	NUMBER OF EQUATIONS:     4002
 	NUMBER OF RHS:           1
 	KRYLOV METHOD:           CG
 	PRECONDITIONER:          PAMG
 	CONVERGENCE TOL:         1.000e-05
 	MAXIMUM ITERATIONS:      200
 	SETUP TIME:              0.1 SEC
 	APPLY TIME:              0.0 SEC
 
    NUMBER OF MATRIX-VECTOR MULTIPLICATIONS: 83
 
 ITERATIVE SOLVER CONVERGED.
 NUM. ITERATIONS =    8 RELATIVE RESIDUAL NORM =  2.093e-06 RHS NORM =  3.275e-04

               CONVERGENCE CHECKS FOR EQUILIBRIUM ITERATION     1


 AVERAGE FORCE                      5.754E-05   TIME AVG. FORCE       2.817E-05
 LARGEST SCALED RESIDUAL FORCE      8.492E-07   AT NODE       1717   DOF  3
   INSTANCE: PART-1-1                                                                        
  CORRESPONDING RESIDUAL FORCE      8.492E-07
 LARGEST INCREMENT OF DISP.         3.761E-06   AT NODE       1148   DOF  2
   INSTANCE: PART-1-1                                                                        
 LARGEST CORRECTION TO DISP.        2.480E-07   AT NODE        363   DOF  3
   INSTANCE: PART-1-1                                                                        
          FORCE     EQUILIBRIUM NOT ACHIEVED WITHIN TOLERANCE.
 
	SYMMETRIC ITERATIVE SOLVER RUNNING ON
 	1 HOST:        16 MPI RANKS x 1 THREAD
 	NUMBER OF EQUATIONS:     4002
 	NUMBER OF RHS:           1
 	KRYLOV METHOD:           CG
 	PRECONDITIONER:          PAMG
 	CONVERGENCE TOL:         1.000e-05
 	MAXIMUM ITERATIONS:      200
 	SETUP TIME:              0.1 SEC
 	APPLY TIME:              0.0 SEC
 
    NUMBER OF MATRIX-VECTOR MULTIPLICATIONS: 83
 
 ITERATIVE SOLVER CONVERGED.
 NUM. ITERATIONS =    8 RELATIVE RESIDUAL NORM =  5.510e-06 RHS NORM =  3.919e-06

               CONVERGENCE CHECKS FOR EQUILIBRIUM ITERATION     2


 AVERAGE FORCE                      5.753E-05   TIME AVG. FORCE       2.817E-05
 LARGEST SCALED RESIDUAL FORCE      8.620E-09   AT NODE       1596   DOF  1
   INSTANCE: PART-1-1                                                                        
  CORRESPONDING RESIDUAL FORCE      8.620E-09
 LARGEST INCREMENT OF DISP.         3.763E-06   AT NODE       1148   DOF  2
   INSTANCE: PART-1-1                                                                        
 LARGEST CORRECTION TO DISP.        5.643E-09   AT NODE       1252   DOF  3
   INSTANCE: PART-1-1                                                                        
          THE FORCE     EQUILIBRIUM EQUATIONS HAVE CONVERGED
          TIME INCREMENT MAY NOW INCREASE TO    7.500E-02

 ITERATION SUMMARY FOR THE INCREMENT:   2 TOTAL ITERATIONS, OF WHICH
   0 ARE SEVERE DISCONTINUITY ITERATIONS AND  2 ARE EQUILIBRIUM ITERATIONS.

 TIME INCREMENT COMPLETED  5.000E-02,  FRACTION OF STEP COMPLETED  2.727E-02
 STEP TIME COMPLETED        1.50    ,  TOTAL TIME COMPLETED         1.50    


  INCREMENT    18 STARTS. ATTEMPT NUMBER  1, TIME INCREMENT  7.500E-02
 
	SYMMETRIC ITERATIVE SOLVER RUNNING ON
 	1 HOST:        16 MPI RANKS x 1 THREAD
 	NUMBER OF EQUATIONS:     4002
 	NUMBER OF RHS:           1
 	KRYLOV METHOD:           CG
 	PRECONDITIONER:          PAMG
 	CONVERGENCE TOL:         1.000e-05
 	MAXIMUM ITERATIONS:      200
 	SETUP TIME:              0.1 SEC
 	APPLY TIME:              0.0 SEC
 
    NUMBER OF MATRIX-VECTOR MULTIPLICATIONS: 83
 
 ITERATIVE SOLVER CONVERGED.
 NUM. ITERATIONS =    8 RELATIVE RESIDUAL NORM =  3.117e-06 RHS NORM =  1.448e-02

               CONVERGENCE CHECKS FOR EQUILIBRIUM ITERATION     1


 AVERAGE FORCE                      5.887E-05   TIME AVG. FORCE       2.987E-05
 LARGEST SCALED RESIDUAL FORCE     -6.608E-05   AT NODE       1596   DOF  1
   INSTANCE: PART-1-1                                                                        
  CORRESPONDING RESIDUAL FORCE     -6.608E-05
 LARGEST INCREMENT OF DISP.         3.010E-06   AT NODE       1003   DOF  2
   INSTANCE: PART-1-1                                                                        
 LARGEST CORRECTION TO DISP.       -2.642E-06   AT NODE       1147   DOF  2
   INSTANCE: PART-1-1                                                                        
          FORCE     EQUILIBRIUM NOT ACHIEVED WITHIN TOLERANCE.
 
	SYMMETRIC ITERATIVE SOLVER RUNNING ON
 	1 HOST:        16 MPI RANKS x 1 THREAD
 	NUMBER OF EQUATIONS:     4002
 	NUMBER OF RHS:           1
 	KRYLOV METHOD:           CG
 	PRECONDITIONER:          PAMG
 	CONVERGENCE TOL:         1.000e-05
 	MAXIMUM ITERATIONS:      200
 	SETUP TIME:              0.1 SEC
 	APPLY TIME:              0.0 SEC
 
    NUMBER OF MATRIX-VECTOR MULTIPLICATIONS: 74
 
 ITERATIVE SOLVER CONVERGED.
 NUM. ITERATIONS =    7 RELATIVE RESIDUAL NORM =  9.034e-06 RHS NORM =  9.501e-05

               CONVERGENCE CHECKS FOR EQUILIBRIUM ITERATION     2


 AVERAGE FORCE                      5.881E-05   TIME AVG. FORCE       2.987E-05
 LARGEST SCALED RESIDUAL FORCE     -1.251E-07   AT NODE       1596   DOF  1
   INSTANCE: PART-1-1                                                                        
  CORRESPONDING RESIDUAL FORCE     -1.251E-07
 LARGEST INCREMENT OF DISP.         3.014E-06   AT NODE       1148   DOF  2
   INSTANCE: PART-1-1                                                                        
 LARGEST CORRECTION TO DISP.       -2.983E-08   AT NODE        599   DOF  1
   INSTANCE: PART-1-1                                                                        
          THE FORCE     EQUILIBRIUM EQUATIONS HAVE CONVERGED
          TIME INCREMENT MAY NOW INCREASE TO    0.113    
          TIME INCREMENT REDUCED TO   2.500E-02 TO MEET NEXT OUTPUT TIME POINT

 ITERATION SUMMARY FOR THE INCREMENT:   2 TOTAL ITERATIONS, OF WHICH
   0 ARE SEVERE DISCONTINUITY ITERATIONS AND  2 ARE EQUILIBRIUM ITERATIONS.

 TIME INCREMENT COMPLETED  7.500E-02,  FRACTION OF STEP COMPLETED  2.864E-02
 STEP TIME COMPLETED        1.58    ,  TOTAL TIME COMPLETED         1.58    


  INCREMENT    19 STARTS. ATTEMPT NUMBER  1, TIME INCREMENT  2.500E-02
 
	SYMMETRIC ITERATIVE SOLVER RUNNING ON
 	1 HOST:        16 MPI RANKS x 1 THREAD
 	NUMBER OF EQUATIONS:     4002
 	NUMBER OF RHS:           1
 	KRYLOV METHOD:           CG
 	PRECONDITIONER:          PAMG
 	CONVERGENCE TOL:         1.000e-05
 	MAXIMUM ITERATIONS:      200
 	SETUP TIME:              0.1 SEC
 	APPLY TIME:              0.0 SEC
 
    NUMBER OF MATRIX-VECTOR MULTIPLICATIONS: 74
 
 ITERATIVE SOLVER CONVERGED.
 NUM. ITERATIONS =    7 RELATIVE RESIDUAL NORM =  3.493e-06 RHS NORM =  1.014e-04

               CONVERGENCE CHECKS FOR EQUILIBRIUM ITERATION     1


 AVERAGE FORCE                      5.944E-05   TIME AVG. FORCE       3.143E-05
 LARGEST SCALED RESIDUAL FORCE     -2.865E-07   AT NODE       1717   DOF  1
[...]
 
 ITERATIVE SOLVER CONVERGED.
 NUM. ITERATIONS =    6 RELATIVE RESIDUAL NORM =  5.957e-06 RHS NORM =  1.417e-06
 

 ***NOTE: USER SUBROUTINE REQUESTS A TIME INCREMENT CHANGE.


  INCREMENT    66 STARTS. ATTEMPT NUMBER 19, TIME INCREMENT  7.250E-08
 
	SYMMETRIC ITERATIVE SOLVER RUNNING ON
 	1 HOST:        16 MPI RANKS x 1 THREAD
 	NUMBER OF EQUATIONS:     4002
 	NUMBER OF RHS:           1
 	KRYLOV METHOD:           CG
 	PRECONDITIONER:          PAMG
 	CONVERGENCE TOL:         1.000e-05
 	MAXIMUM ITERATIONS:      200
 	SETUP TIME:              0.1 SEC
 	APPLY TIME:              0.0 SEC
 
    NUMBER OF MATRIX-VECTOR MULTIPLICATIONS: 65
 
 ITERATIVE SOLVER CONVERGED.
 NUM. ITERATIONS =    6 RELATIVE RESIDUAL NORM =  5.896e-06 RHS NORM =  1.411e-06
 

 ***NOTE: USER SUBROUTINE REQUESTS A TIME INCREMENT CHANGE.


  INCREMENT    66 STARTS. ATTEMPT NUMBER 20, TIME INCREMENT  3.625E-08
 
	SYMMETRIC ITERATIVE SOLVER RUNNING ON
 	1 HOST:        16 MPI RANKS x 1 THREAD
 	NUMBER OF EQUATIONS:     4002
 	NUMBER OF RHS:           1
 	KRYLOV METHOD:           CG
 	PRECONDITIONER:          PAMG
 	CONVERGENCE TOL:         1.000e-05
 	MAXIMUM ITERATIONS:      200
 	SETUP TIME:              0.1 SEC
 	APPLY TIME:              0.0 SEC
 
    NUMBER OF MATRIX-VECTOR MULTIPLICATIONS: 65
 
 ITERATIVE SOLVER CONVERGED.
 NUM. ITERATIONS =    6 RELATIVE RESIDUAL NORM =  5.865e-06 RHS NORM =  1.408e-06
 

 ***NOTE: USER SUBROUTINE REQUESTS A TIME INCREMENT CHANGE.


  INCREMENT    66 STARTS. ATTEMPT NUMBER 21, TIME INCREMENT  1.813E-08
 
	SYMMETRIC ITERATIVE SOLVER RUNNING ON
 	1 HOST:        16 MPI RANKS x 1 THREAD
 	NUMBER OF EQUATIONS:     4002
 	NUMBER OF RHS:           1
 	KRYLOV METHOD:           CG
 	PRECONDITIONER:          PAMG
 	CONVERGENCE TOL:         1.000e-05
 	MAXIMUM ITERATIONS:      200
 	SETUP TIME:              0.1 SEC
 	APPLY TIME:              0.0 SEC
 
    NUMBER OF MATRIX-VECTOR MULTIPLICATIONS: 65
 
 ITERATIVE SOLVER CONVERGED.
 NUM. ITERATIONS =    6 RELATIVE RESIDUAL NORM =  5.850e-06 RHS NORM =  1.407e-06
 

 ***NOTE: USER SUBROUTINE REQUESTS A TIME INCREMENT CHANGE.


  INCREMENT    66 STARTS. ATTEMPT NUMBER 22, TIME INCREMENT  9.063E-09
 
	SYMMETRIC ITERATIVE SOLVER RUNNING ON
 	1 HOST:        16 MPI RANKS x 1 THREAD
 	NUMBER OF EQUATIONS:     4002
 	NUMBER OF RHS:           1
 	KRYLOV METHOD:           CG
 	PRECONDITIONER:          PAMG
 	CONVERGENCE TOL:         1.000e-05
 	MAXIMUM ITERATIONS:      200
 	SETUP TIME:              0.1 SEC
 	APPLY TIME:              0.0 SEC
 
    NUMBER OF MATRIX-VECTOR MULTIPLICATIONS: 65
 
 ITERATIVE SOLVER CONVERGED.
 NUM. ITERATIONS =    6 RELATIVE RESIDUAL NORM =  5.842e-06 RHS NORM =  1.406e-06
 

 ***NOTE: USER SUBROUTINE REQUESTS A TIME INCREMENT CHANGE.


  INCREMENT    66 STARTS. ATTEMPT NUMBER 23, TIME INCREMENT  4.531E-09
 
	SYMMETRIC ITERATIVE SOLVER RUNNING ON
 	1 HOST:        16 MPI RANKS x 1 THREAD
 	NUMBER OF EQUATIONS:     4002
 	NUMBER OF RHS:           1
 	KRYLOV METHOD:           CG
 	PRECONDITIONER:          PAMG
 	CONVERGENCE TOL:         1.000e-05
 	MAXIMUM ITERATIONS:      200
 	SETUP TIME:              0.1 SEC
 	APPLY TIME:              0.0 SEC
 
    NUMBER OF MATRIX-VECTOR MULTIPLICATIONS: 65
 
 ITERATIVE SOLVER CONVERGED.
 NUM. ITERATIONS =    6 RELATIVE RESIDUAL NORM =  5.838e-06 RHS NORM =  1.406e-06
 

 ***NOTE: USER SUBROUTINE REQUESTS A TIME INCREMENT CHANGE.


  INCREMENT    66 STARTS. ATTEMPT NUMBER 24, TIME INCREMENT  2.266E-09
 
	SYMMETRIC ITERATIVE SOLVER RUNNING ON
 	1 HOST:        16 MPI RANKS x 1 THREAD
 	NUMBER OF EQUATIONS:     4002
 	NUMBER OF RHS:           1
 	KRYLOV METHOD:           CG
 	PRECONDITIONER:          PAMG
 	CONVERGENCE TOL:         1.000e-05
 	MAXIMUM ITERATIONS:      200
 	SETUP TIME:              0.1 SEC
 	APPLY TIME:              0.0 SEC
 
    NUMBER OF MATRIX-VECTOR MULTIPLICATIONS: 65
 
 ITERATIVE SOLVER CONVERGED.
 NUM. ITERATIONS =    6 RELATIVE RESIDUAL NORM =  9.851e-06 RHS NORM =  9.622e-01
   ELEMENT PART-1-1.840 IS DISTORTING EXCESSIVELY.
   ELEMENT PART-1-1.841 IS DISTORTING EXCESSIVELY.

 ***WARNING: EXCESSIVE DISTORTION AT A TOTAL OF 2 INTEGRATION POINTS IN SOLID 
             (CONTINUUM) ELEMENTS
 

 ***NOTE: ELEMENTS ARE DISTORTING EXCESSIVELY. CONVERGENCE IS JUDGED UNLIKELY.


  INCREMENT    66 STARTS. ATTEMPT NUMBER 25, TIME INCREMENT  5.664E-10
 
	SYMMETRIC ITERATIVE SOLVER RUNNING ON
 	1 HOST:        16 MPI RANKS x 1 THREAD
 	NUMBER OF EQUATIONS:     4002
 	NUMBER OF RHS:           1
 	KRYLOV METHOD:           CG
 	PRECONDITIONER:          PAMG
 	CONVERGENCE TOL:         1.000e-05
 	MAXIMUM ITERATIONS:      200
 	SETUP TIME:              0.1 SEC
 	APPLY TIME:              0.0 SEC
 
    NUMBER OF MATRIX-VECTOR MULTIPLICATIONS: 65
 
 ITERATIVE SOLVER CONVERGED.
 NUM. ITERATIONS =    6 RELATIVE RESIDUAL NORM =  4.420e-06 RHS NORM =  4.762e-01
 

 ***NOTE: USER SUBROUTINE REQUESTS A TIME INCREMENT CHANGE.


  INCREMENT    66 STARTS. ATTEMPT NUMBER 26, TIME INCREMENT  2.832E-10
 
	SYMMETRIC ITERATIVE SOLVER RUNNING ON
 	1 HOST:        16 MPI RANKS x 1 THREAD
 	NUMBER OF EQUATIONS:     4002
 	NUMBER OF RHS:           1
 	KRYLOV METHOD:           CG
 	PRECONDITIONER:          PAMG
 	CONVERGENCE TOL:         1.000e-05
 	MAXIMUM ITERATIONS:      200
 	SETUP TIME:              0.1 SEC
 	APPLY TIME:              0.0 SEC
 
    NUMBER OF MATRIX-VECTOR MULTIPLICATIONS: 65
 
 ITERATIVE SOLVER CONVERGED.
 NUM. ITERATIONS =    6 RELATIVE RESIDUAL NORM =  4.826e-06 RHS NORM =  2.141e-01
 

 ***NOTE: USER SUBROUTINE REQUESTS A TIME INCREMENT CHANGE.


  INCREMENT    66 STARTS. ATTEMPT NUMBER 27, TIME INCREMENT  1.416E-10
 
	SYMMETRIC ITERATIVE SOLVER RUNNING ON
 	1 HOST:        16 MPI RANKS x 1 THREAD
 	NUMBER OF EQUATIONS:     4002
 	NUMBER OF RHS:           1
 	KRYLOV METHOD:           CG
 	PRECONDITIONER:          PAMG
 	CONVERGENCE TOL:         1.000e-05
 	MAXIMUM ITERATIONS:      200
 	SETUP TIME:              0.1 SEC
 	APPLY TIME:              0.0 SEC
 
    NUMBER OF MATRIX-VECTOR MULTIPLICATIONS: 65
 
 ITERATIVE SOLVER CONVERGED.
 NUM. ITERATIONS =    6 RELATIVE RESIDUAL NORM =  5.444e-06 RHS NORM =  9.267e-02
 

 ***NOTE: USER SUBROUTINE REQUESTS A TIME INCREMENT CHANGE.


  INCREMENT    66 STARTS. ATTEMPT NUMBER 28, TIME INCREMENT  7.080E-11
 
	SYMMETRIC ITERATIVE SOLVER RUNNING ON
 	1 HOST:        16 MPI RANKS x 1 THREAD
 	NUMBER OF EQUATIONS:     4002
 	NUMBER OF RHS:           1
 	KRYLOV METHOD:           CG
 	PRECONDITIONER:          PAMG
 	CONVERGENCE TOL:         1.000e-05
 	MAXIMUM ITERATIONS:      200
 	SETUP TIME:              0.1 SEC
 	APPLY TIME:              0.0 SEC
 
    NUMBER OF MATRIX-VECTOR MULTIPLICATIONS: 65
 
 ITERATIVE SOLVER CONVERGED.
 NUM. ITERATIONS =    6 RELATIVE RESIDUAL NORM =  5.792e-06 RHS NORM =  4.738e-02
 

 ***NOTE: USER SUBROUTINE REQUESTS A TIME INCREMENT CHANGE.


  INCREMENT    66 STARTS. ATTEMPT NUMBER 29, TIME INCREMENT  3.540E-11
 
	SYMMETRIC ITERATIVE SOLVER RUNNING ON
 	1 HOST:        16 MPI RANKS x 1 THREAD
 	NUMBER OF EQUATIONS:     4002
 	NUMBER OF RHS:           1
 	KRYLOV METHOD:           CG
 	PRECONDITIONER:          PAMG
 	CONVERGENCE TOL:         1.000e-05
 	MAXIMUM ITERATIONS:      200
 	SETUP TIME:              0.1 SEC
 	APPLY TIME:              0.0 SEC
 
    NUMBER OF MATRIX-VECTOR MULTIPLICATIONS: 65
 
 ITERATIVE SOLVER CONVERGED.
 NUM. ITERATIONS =    6 RELATIVE RESIDUAL NORM =  5.429e-06 RHS NORM =  3.209e-02
 

 ***NOTE: USER SUBROUTINE REQUESTS A TIME INCREMENT CHANGE.


  INCREMENT    66 STARTS. ATTEMPT NUMBER 30, TIME INCREMENT  1.770E-11
 
	SYMMETRIC ITERATIVE SOLVER RUNNING ON
 	1 HOST:        16 MPI RANKS x 1 THREAD
 	NUMBER OF EQUATIONS:     4002
 	NUMBER OF RHS:           1
 	KRYLOV METHOD:           CG
 	PRECONDITIONER:          PAMG
 	CONVERGENCE TOL:         1.000e-05
 	MAXIMUM ITERATIONS:      200
 	SETUP TIME:              0.1 SEC
 	APPLY TIME:              0.0 SEC
 
    NUMBER OF MATRIX-VECTOR MULTIPLICATIONS: 65
 
 ITERATIVE SOLVER CONVERGED.
 NUM. ITERATIONS =    6 RELATIVE RESIDUAL NORM =  4.811e-06 RHS NORM =  2.662e-02
 

 ***NOTE: USER SUBROUTINE REQUESTS A TIME INCREMENT CHANGE.


  INCREMENT    66 STARTS. ATTEMPT NUMBER 31, TIME INCREMENT  8.850E-12
 
	SYMMETRIC ITERATIVE SOLVER RUNNING ON
 	1 HOST:        16 MPI RANKS x 1 THREAD
 	NUMBER OF EQUATIONS:     4002
 	NUMBER OF RHS:           1
 	KRYLOV METHOD:           CG
 	PRECONDITIONER:          PAMG
 	CONVERGENCE TOL:         1.000e-05
 	MAXIMUM ITERATIONS:      200
 	SETUP TIME:              0.1 SEC
 	APPLY TIME:              0.0 SEC
 
    NUMBER OF MATRIX-VECTOR MULTIPLICATIONS: 65
 
 ITERATIVE SOLVER CONVERGED.
 NUM. ITERATIONS =    6 RELATIVE RESIDUAL NORM =  4.388e-06 RHS NORM =  2.448e-02
 

 ***NOTE: USER SUBROUTINE REQUESTS A TIME INCREMENT CHANGE.


  INCREMENT    66 STARTS. ATTEMPT NUMBER 32, TIME INCREMENT  4.425E-12
 
	SYMMETRIC ITERATIVE SOLVER RUNNING ON
 	1 HOST:        16 MPI RANKS x 1 THREAD
 	NUMBER OF EQUATIONS:     4002
 	NUMBER OF RHS:           1
 	KRYLOV METHOD:           CG
 	PRECONDITIONER:          PAMG
 	CONVERGENCE TOL:         1.000e-05
 	MAXIMUM ITERATIONS:      200
 	SETUP TIME:              0.1 SEC
 	APPLY TIME:              0.0 SEC
 
    NUMBER OF MATRIX-VECTOR MULTIPLICATIONS: 65
 
 ITERATIVE SOLVER CONVERGED.
 NUM. ITERATIONS =    6 RELATIVE RESIDUAL NORM =  4.178e-06 RHS NORM =  2.360e-02
 

 ***NOTE: USER SUBROUTINE REQUESTS A TIME INCREMENT CHANGE.


  INCREMENT    66 STARTS. ATTEMPT NUMBER 33, TIME INCREMENT  2.213E-12
 
	SYMMETRIC ITERATIVE SOLVER RUNNING ON
 	1 HOST:        16 MPI RANKS x 1 THREAD
 	NUMBER OF EQUATIONS:     4002
 	NUMBER OF RHS:           1
 	KRYLOV METHOD:           CG
 	PRECONDITIONER:          PAMG
 	CONVERGENCE TOL:         1.000e-05
 	MAXIMUM ITERATIONS:      200
 	SETUP TIME:              0.1 SEC
 	APPLY TIME:              0.0 SEC
 
    NUMBER OF MATRIX-VECTOR MULTIPLICATIONS: 65
 
 ITERATIVE SOLVER CONVERGED.
 NUM. ITERATIONS =    6 RELATIVE RESIDUAL NORM =  4.084e-06 RHS NORM =  2.322e-02
 

 ***NOTE: USER SUBROUTINE REQUESTS A TIME INCREMENT CHANGE.


  INCREMENT    66 STARTS. ATTEMPT NUMBER 34, TIME INCREMENT  1.106E-12
 
	SYMMETRIC ITERATIVE SOLVER RUNNING ON
 	1 HOST:        16 MPI RANKS x 1 THREAD
 	NUMBER OF EQUATIONS:     4002
 	NUMBER OF RHS:           1
 	KRYLOV METHOD:           CG
 	PRECONDITIONER:          PAMG
 	CONVERGENCE TOL:         1.000e-05
 	MAXIMUM ITERATIONS:      200
 	SETUP TIME:              0.1 SEC
 	APPLY TIME:              0.0 SEC
 
    NUMBER OF MATRIX-VECTOR MULTIPLICATIONS: 65
 
 ITERATIVE SOLVER CONVERGED.
 NUM. ITERATIONS =    6 RELATIVE RESIDUAL NORM =  4.041e-06 RHS NORM =  2.305e-02
 

 ***NOTE: USER SUBROUTINE REQUESTS A TIME INCREMENT CHANGE.


  INCREMENT    66 STARTS. ATTEMPT NUMBER 35, TIME INCREMENT  5.531E-13
 
	SYMMETRIC ITERATIVE SOLVER RUNNING ON
 	1 HOST:        16 MPI RANKS x 1 THREAD
 	NUMBER OF EQUATIONS:     4002
 	NUMBER OF RHS:           1
 	KRYLOV METHOD:           CG
 	PRECONDITIONER:          PAMG
 	CONVERGENCE TOL:         1.000e-05
 	MAXIMUM ITERATIONS:      200
 	SETUP TIME:              0.1 SEC
 	APPLY TIME:              0.0 SEC
 
    NUMBER OF MATRIX-VECTOR MULTIPLICATIONS: 65
 
 ITERATIVE SOLVER CONVERGED.
 NUM. ITERATIONS =    6 RELATIVE RESIDUAL NORM =  4.021e-06 RHS NORM =  2.297e-02
 

 ***NOTE: USER SUBROUTINE REQUESTS A TIME INCREMENT CHANGE.


  INCREMENT    66 STARTS. ATTEMPT NUMBER 36, TIME INCREMENT  2.766E-13
 
	SYMMETRIC ITERATIVE SOLVER RUNNING ON
 	1 HOST:        16 MPI RANKS x 1 THREAD
 	NUMBER OF EQUATIONS:     4002
 	NUMBER OF RHS:           1
 	KRYLOV METHOD:           CG
 	PRECONDITIONER:          PAMG
 	CONVERGENCE TOL:         1.000e-05
 	MAXIMUM ITERATIONS:      200
 	SETUP TIME:              0.1 SEC
 	APPLY TIME:              0.0 SEC
 
    NUMBER OF MATRIX-VECTOR MULTIPLICATIONS: 65
 
 ITERATIVE SOLVER CONVERGED.
 NUM. ITERATIONS =    6 RELATIVE RESIDUAL NORM =  4.012e-06 RHS NORM =  2.294e-02
 

 ***NOTE: USER SUBROUTINE REQUESTS A TIME INCREMENT CHANGE.


  INCREMENT    66 STARTS. ATTEMPT NUMBER 37, TIME INCREMENT  1.383E-13
 
	SYMMETRIC ITERATIVE SOLVER RUNNING ON
 	1 HOST:        16 MPI RANKS x 1 THREAD
 	NUMBER OF EQUATIONS:     4002
 	NUMBER OF RHS:           1
 	KRYLOV METHOD:           CG
 	PRECONDITIONER:          PAMG
 	CONVERGENCE TOL:         1.000e-05
 	MAXIMUM ITERATIONS:      200
 	SETUP TIME:              0.1 SEC
 	APPLY TIME:              0.0 SEC
 
    NUMBER OF MATRIX-VECTOR MULTIPLICATIONS: 65
 
 ITERATIVE SOLVER CONVERGED.
 NUM. ITERATIONS =    6 RELATIVE RESIDUAL NORM =  4.007e-06 RHS NORM =  2.292e-02
 

 ***NOTE: USER SUBROUTINE REQUESTS A TIME INCREMENT CHANGE.


  INCREMENT    66 STARTS. ATTEMPT NUMBER 38, TIME INCREMENT  6.914E-14
 
	SYMMETRIC ITERATIVE SOLVER RUNNING ON
 	1 HOST:        16 MPI RANKS x 1 THREAD
 	NUMBER OF EQUATIONS:     4002
 	NUMBER OF RHS:           1
 	KRYLOV METHOD:           CG
 	PRECONDITIONER:          PAMG
 	CONVERGENCE TOL:         1.000e-05
 	MAXIMUM ITERATIONS:      200
 	SETUP TIME:              0.1 SEC
 	APPLY TIME:              0.0 SEC
 
    NUMBER OF MATRIX-VECTOR MULTIPLICATIONS: 65
 
 ITERATIVE SOLVER CONVERGED.
 NUM. ITERATIONS =    6 RELATIVE RESIDUAL NORM =  4.005e-06 RHS NORM =  2.291e-02
 

 ***NOTE: USER SUBROUTINE REQUESTS A TIME INCREMENT CHANGE.


  INCREMENT    66 STARTS. ATTEMPT NUMBER 39, TIME INCREMENT  3.457E-14
 
	SYMMETRIC ITERATIVE SOLVER RUNNING ON
 	1 HOST:        16 MPI RANKS x 1 THREAD
 	NUMBER OF EQUATIONS:     4002
 	NUMBER OF RHS:           1
 	KRYLOV METHOD:           CG
 	PRECONDITIONER:          PAMG
 	CONVERGENCE TOL:         1.000e-05
 	MAXIMUM ITERATIONS:      200
 	SETUP TIME:              0.1 SEC
 	APPLY TIME:              0.0 SEC
 
    NUMBER OF MATRIX-VECTOR MULTIPLICATIONS: 65
 
 ITERATIVE SOLVER CONVERGED.
 NUM. ITERATIONS =    6 RELATIVE RESIDUAL NORM =  4.004e-06 RHS NORM =  2.290e-02
 

 ***NOTE: USER SUBROUTINE REQUESTS A TIME INCREMENT CHANGE.


  INCREMENT    66 STARTS. ATTEMPT NUMBER 40, TIME INCREMENT  1.729E-14
 
	SYMMETRIC ITERATIVE SOLVER RUNNING ON
 	1 HOST:        16 MPI RANKS x 1 THREAD
 	NUMBER OF EQUATIONS:     4002
 	NUMBER OF RHS:           1
 	KRYLOV METHOD:           CG
 	PRECONDITIONER:          PAMG
 	CONVERGENCE TOL:         1.000e-05
 	MAXIMUM ITERATIONS:      200
 	SETUP TIME:              0.1 SEC
 	APPLY TIME:              0.0 SEC
 
    NUMBER OF MATRIX-VECTOR MULTIPLICATIONS: 65
 
 ITERATIVE SOLVER CONVERGED.
 NUM. ITERATIONS =    6 RELATIVE RESIDUAL NORM =  4.003e-06 RHS NORM =  2.290e-02
 

 ***NOTE: USER SUBROUTINE REQUESTS A TIME INCREMENT CHANGE.


  INCREMENT    66 STARTS. ATTEMPT NUMBER 41, TIME INCREMENT  8.643E-15
 
	SYMMETRIC ITERATIVE SOLVER RUNNING ON
 	1 HOST:        16 MPI RANKS x 1 THREAD
 	NUMBER OF EQUATIONS:     4002
 	NUMBER OF RHS:           1
 	KRYLOV METHOD:           CG
 	PRECONDITIONER:          PAMG
 	CONVERGENCE TOL:         1.000e-05
 	MAXIMUM ITERATIONS:      200
 	SETUP TIME:              0.1 SEC
 	APPLY TIME:              0.0 SEC
 
    NUMBER OF MATRIX-VECTOR MULTIPLICATIONS: 65
 
 ITERATIVE SOLVER CONVERGED.
 NUM. ITERATIONS =    6 RELATIVE RESIDUAL NORM =  4.003e-06 RHS NORM =  2.290e-02
 

 ***NOTE: USER SUBROUTINE REQUESTS A TIME INCREMENT CHANGE.


  INCREMENT    66 STARTS. ATTEMPT NUMBER 42, TIME INCREMENT  4.321E-15
 
	SYMMETRIC ITERATIVE SOLVER RUNNING ON
 	1 HOST:        16 MPI RANKS x 1 THREAD
 	NUMBER OF EQUATIONS:     4002
 	NUMBER OF RHS:           1
 	KRYLOV METHOD:           CG
 	PRECONDITIONER:          PAMG
 	CONVERGENCE TOL:         1.000e-05
 	MAXIMUM ITERATIONS:      200
 	SETUP TIME:              0.1 SEC
 	APPLY TIME:              0.0 SEC
 
    NUMBER OF MATRIX-VECTOR MULTIPLICATIONS: 65
 
 ITERATIVE SOLVER CONVERGED.
 NUM. ITERATIONS =    6 RELATIVE RESIDUAL NORM =  4.003e-06 RHS NORM =  2.290e-02
 

 ***NOTE: USER SUBROUTINE REQUESTS A TIME INCREMENT CHANGE.


  INCREMENT    66 STARTS. ATTEMPT NUMBER 43, TIME INCREMENT  2.161E-15
 
	SYMMETRIC ITERATIVE SOLVER RUNNING ON
 	1 HOST:        16 MPI RANKS x 1 THREAD
 	NUMBER OF EQUATIONS:     4002
 	NUMBER OF RHS:           1
 	KRYLOV METHOD:           CG
 	PRECONDITIONER:          PAMG
 	CONVERGENCE TOL:         1.000e-05
 	MAXIMUM ITERATIONS:      200
 	SETUP TIME:              0.1 SEC
 	APPLY TIME:              0.0 SEC
 
    NUMBER OF MATRIX-VECTOR MULTIPLICATIONS: 65
 
 ITERATIVE SOLVER CONVERGED.
 NUM. ITERATIONS =    6 RELATIVE RESIDUAL NORM =  4.003e-06 RHS NORM =  2.290e-02
 

 ***NOTE: USER SUBROUTINE REQUESTS A TIME INCREMENT CHANGE.


  INCREMENT    66 STARTS. ATTEMPT NUMBER 44, TIME INCREMENT  1.080E-15
 
	SYMMETRIC ITERATIVE SOLVER RUNNING ON
 	1 HOST:        16 MPI RANKS x 1 THREAD
 	NUMBER OF EQUATIONS:     4002
 	NUMBER OF RHS:           1
 	KRYLOV METHOD:           CG
 	PRECONDITIONER:          PAMG
 	CONVERGENCE TOL:         1.000e-05
 	MAXIMUM ITERATIONS:      200
 	SETUP TIME:              0.1 SEC
 	APPLY TIME:              0.0 SEC
 
    NUMBER OF MATRIX-VECTOR MULTIPLICATIONS: 65
 
 ITERATIVE SOLVER CONVERGED.
 NUM. ITERATIONS =    6 RELATIVE RESIDUAL NORM =  4.003e-06 RHS NORM =  2.290e-02
 

 ***NOTE: USER SUBROUTINE REQUESTS A TIME INCREMENT CHANGE.


  INCREMENT    66 STARTS. ATTEMPT NUMBER 45, TIME INCREMENT  5.402E-16
 
	SYMMETRIC ITERATIVE SOLVER RUNNING ON
 	1 HOST:        16 MPI RANKS x 1 THREAD
 	NUMBER OF EQUATIONS:     4002
 	NUMBER OF RHS:           1
 	KRYLOV METHOD:           CG
 	PRECONDITIONER:          PAMG
 	CONVERGENCE TOL:         1.000e-05
 	MAXIMUM ITERATIONS:      200
 	SETUP TIME:              0.1 SEC
 	APPLY TIME:              0.0 SEC
 
    NUMBER OF MATRIX-VECTOR MULTIPLICATIONS: 65
 
 ITERATIVE SOLVER CONVERGED.
 NUM. ITERATIONS =    6 RELATIVE RESIDUAL NORM =  4.003e-06 RHS NORM =  2.290e-02
 

 ***NOTE: USER SUBROUTINE REQUESTS A TIME INCREMENT CHANGE.
 

 ***ERROR: TOO MANY ATTEMPTS MADE FOR THIS INCREMENT
 

 ***ERROR: TOO MANY ATTEMPTS MADE FOR THIS INCREMENT
 

 ***ERROR: TOO MANY ATTEMPTS MADE FOR THIS INCREMENT
 

 ***ERROR: TOO MANY ATTEMPTS MADE FOR THIS INCREMENT
 

 ***ERROR: TOO MANY ATTEMPTS MADE FOR THIS INCREMENT
 

 ***ERROR: TOO MANY ATTEMPTS MADE FOR THIS INCREMENT
 

 ***ERROR: TOO MANY ATTEMPTS MADE FOR THIS INCREMENT
 

 ***ERROR: TOO MANY ATTEMPTS MADE FOR THIS INCREMENT
 

 ***ERROR: TOO MANY ATTEMPTS MADE FOR THIS INCREMENT
 

 ***ERROR: TOO MANY ATTEMPTS MADE FOR THIS INCREMENT
 

 ***ERROR: TOO MANY ATTEMPTS MADE FOR THIS INCREMENT
 

 ***ERROR: TOO MANY ATTEMPTS MADE FOR THIS INCREMENT
 

 ***ERROR: TOO MANY ATTEMPTS MADE FOR THIS INCREMENT
 

 ***ERROR: TOO MANY ATTEMPTS MADE FOR THIS INCREMENT
 

 ***ERROR: TOO MANY ATTEMPTS MADE FOR THIS INCREMENT
 

 ***ERROR: TOO MANY ATTEMPTS MADE FOR THIS INCREMENT

 ***ERROR: THE ANALYSIS HAS BEEN TERMINATED DUE TO PREVIOUS ERRORS. ALL OUTPUT 
           REQUESTS HAVE BEEN WRITTEN FOR THE LAST CONVERGED INCREMENT.



     ANALYSIS SUMMARY:
     TOTAL OF         66  INCREMENTS
                      57  CUTBACKS IN AUTOMATIC INCREMENTATION
                     214  ITERATIONS INCLUDING CONTACT ITERATIONS IF PRESENT
                     214  PASSES THROUGH THE EQUATION SOLVER OF WHICH 
                     214  INVOLVE MATRIX DECOMPOSITION, INCLUDING
                       0  DECOMPOSITION(S) OF THE MASS MATRIX
                       1  REORDERING OF EQUATIONS TO MINIMIZE WAVEFRONT
                       0  ADDITIONAL RESIDUAL EVALUATIONS FOR LINE SEARCHES
                       0  ADDITIONAL OPERATOR EVALUATIONS FOR LINE SEARCHES
                       1  WARNING MESSAGES DURING USER INPUT PROCESSING
                       1  WARNING MESSAGES DURING ANALYSIS
                       0  ANALYSIS WARNINGS ARE NUMERICAL PROBLEM MESSAGES
                       0  ANALYSIS WARNINGS ARE NEGATIVE EIGENVALUE MESSAGES
                      17  ERROR MESSAGES



     JOB TIME SUMMARY
       USER TIME (SEC)      =      84.    
       SYSTEM TIME (SEC)    =      6.5    
       TOTAL CPU TIME (SEC) =      90.    
       WALLCLOCK TIME (SEC) =           95
       MEMORY PEAK (GB)     =            0
