 Abaqus/Standard 2022.HF6                  DATE 13-Sep-2023 TIME 15:54:17
 SUMMARY OF JOB INFORMATION:
 STEP  INC ATT SEVERE EQUIL TOTAL  TOTAL      STEP       INC OF       DOF    IF
               DISCON ITERS ITERS  TIME/    TIME/LPF    TIME/LPF    MONITOR RIKS
               ITERS               FREQ
   1     1   1     0     2     2  0.100      0.100      0.1000    
   1     2   1     0     2     2  0.200      0.200      0.1000    
   1     3   1     0     1     1  0.300      0.300      0.1000    
   1     4   1     0     2     2  0.400      0.400      0.1000    
   1     5   1     0     2     2  0.500      0.500      0.1000    
   1     6   1     0     2     2  0.600      0.600      0.1000    
   1     7   1     0     1     1  0.700      0.700      0.1000    
   1     8   1     0     2     2  0.800      0.800      0.1000    
   1     9   1     0     2     2  0.900      0.900      0.1000    
   1    10   1     0     1     1  1.00       1.00       0.1000    
   1    11   1     0     1     1  1.10       1.10       0.1000    
   1    12   1     0     2     2  1.20       1.20       0.1000    
   1    13   1U    0     1     1  1.20       1.20       0.1000    
   1    13   2     0     2     2  1.25       1.25       0.05000   
   1    14   1     0     2     2  1.30       1.30       0.05000   
   1    15   1     0     3     3  1.40       1.40       0.1000    
   1    16   1U    0     1     1  1.40       1.40       0.1000    
   1    16   2     0     3     3  1.45       1.45       0.05000   
   1    17   1     0     2     2  1.50       1.50       0.05000   
   1    18   1     0     2     2  1.58       1.58       0.07500   
   1    19   1     0     2     2  1.60       1.60       0.02500   
   1    20   1U    0     1     1  1.60       1.60       0.1000    
   1    20   2     0     2     2  1.65       1.65       0.05000   
   1    21   1     0     2     2  1.70       1.70       0.05000   
   1    22   1     0     2     2  1.78       1.78       0.07500   
   1    23   1     0     1     1  1.80       1.80       0.02500   
   1    24   1     0     3     3  1.90       1.90       0.1000    
   1    25   1     0     2     2  2.00       2.00       0.1000    
   1    26   1     0     2     2  2.10       2.10       0.1000    
   1    27   1     0     2     2  2.20       2.20       0.1000    
   1    28   1     0     2     2  2.30       2.30       0.1000    
   1    29   1     0     3     3  2.40       2.40       0.1000    
   1    30   1     0     2     2  2.50       2.50       0.1000    
   1    31   1     0     2     2  2.60       2.60       0.1000    
   1    32   1     0     1     1  2.70       2.70       0.1000    
   1    33   1     0     1     1  2.80       2.80       0.1000    
   1    34   1     0     2     2  2.90       2.90       0.1000    
   1    35   1     0     1     1  3.00       3.00       0.1000    
   1    36   1     0     2     2  3.10       3.10       0.1000    
   1    37   1     0     2     2  3.20       3.20       0.1000    
   1    38   1     0     2     2  3.30       3.30       0.1000    
   1    39   1     0     2     2  3.40       3.40       0.1000    
   1    40   1     0     2     2  3.50       3.50       0.1000    
   1    41   1     0     2     2  3.60       3.60       0.1000    
   1    42   1     0     2     2  3.70       3.70       0.1000    
   1    43   1     0     1     1  3.80       3.80       0.1000    
   1    44   1     0     2     2  3.90       3.90       0.1000    
   1    45   1     0     2     2  4.00       4.00       0.1000    
   1    46   1     0     1     1  4.10       4.10       0.1000    
   1    47   1     0     2     2  4.20       4.20       0.1000    
   1    48   1     0     2     2  4.30       4.30       0.1000    
   1    49   1     0     2     2  4.40       4.40       0.1000    
   1    50   1     0     2     2  4.50       4.50       0.1000    
   1    51   1     0     2     2  4.60       4.60       0.1000    
   1    52   1     0     2     2  4.70       4.70       0.1000    
   1    53   1     0     2     2  4.80       4.80       0.1000    
   1    54   1     0     1     1  4.90       4.90       0.1000    
   1    55   1     0     3     3  5.00       5.00       0.1000    
   1    56   1U    0     1     1  5.00       5.00       0.1688    
   1    56   2U    0     1     1  5.00       5.00       0.08438   
   1    56   3U    0     3     3  5.00       5.00       0.04219   
   1    56   4     0     3     3  5.02       5.02       0.02109   
   1    57   1     0     2     2  5.05       5.05       0.03164   
   1    58   1     0     2     2  5.10       5.10       0.04746   
   1    59   1     0     1     1  5.17       5.17       0.07119   
   1    60   1     0     1     1  5.28       5.28       0.1068    
   1    61   1     0     2     2  5.44       5.44       0.1602    
   1    62   1     0     2     2  5.68       5.68       0.2403    
   1    63   1     0     2     2  6.04       6.04       0.3604    
   1    64   1     0     5     5  6.58       6.58       0.5406    
   1    65   1U    0     1     1  6.58       6.58       0.8109    
   1    65   2     0     4     4  6.99       6.99       0.4055    
   1    66   1     0     4     4  7.59       7.59       0.6082    
   1    67   1U    0     1     1  7.59       7.59       0.9123    
   1    67   2     0     4     4  8.05       8.05       0.4561    
   1    68   1U    0     1     1  8.05       8.05       0.6842    
   1    68   2     0     2     2  8.39       8.39       0.3421    
   1    69   1U    0     1     1  8.39       8.39       0.5132    
   1    69   2     0     2     2  8.65       8.65       0.2566    
   1    70   1U    0     1     1  8.65       8.65       0.3849    
   1    70   2U    0     1     1  8.65       8.65       0.1924    
   1    70   3     0     2     2  8.74       8.74       0.09622   
   1    71   1U    0     1     1  8.74       8.74       0.1443    
   1    71   2U    0     1     1  8.74       8.74       0.07216   
   1    71   3     0     1     1  8.78       8.78       0.03608   
   1    72   1     0     2     2  8.83       8.83       0.05412   
   1    73   1U    0     1     1  8.83       8.83       0.08118   
   1    73   2     0     2     2  8.88       8.88       0.04059   
   1    74   1     0     2     2  8.94       8.94       0.06089   
   1    75   1U    0     1     1  8.94       8.94       0.09133   
   1    75   2     0     2     2  8.98       8.98       0.04567   
   1    76   1U    0     1     1  8.98       8.98       0.06850   
   1    76   2     0     2     2  9.02       9.02       0.03425   
   1    77   1     0     2     2  9.07       9.07       0.05137   
   1    78   1U    0     1     1  9.07       9.07       0.07706   
   1    78   2     0     2     2  9.11       9.11       0.03853   
   1    79   1     0     2     2  9.16       9.16       0.05780   
   1    80   1U    0     1     1  9.16       9.16       0.08669   
   1    80   2     0     2     2  9.21       9.21       0.04335   
   1    81   1     0     2     2  9.27       9.27       0.06502   
   1    82   1U    0     1     1  9.27       9.27       0.09753   
   1    82   2     0     2     2  9.32       9.32       0.04876   
   1    83   1     0     2     2  9.39       9.39       0.07315   
   1    84   1U    0     1     1  9.39       9.39       0.1097    
   1    84   2     0     2     2  9.45       9.45       0.05486   
   1    85   1     0     2     2  9.53       9.53       0.08229   
   1    86   1U    0     1     1  9.53       9.53       0.1234    
   1    86   2     0     2     2  9.59       9.59       0.06172   
   1    87   1     0     2     2  9.69       9.69       0.09258   
   1    88   1U    0     1     1  9.69       9.69       0.1389    
   1    88   2     0     2     2  9.75       9.75       0.06943   
   1    89   1     0     2     2  9.86       9.86       0.1041    
   1    90   1U    0     1     1  9.86       9.86       0.1562    
   1    90   2     0     2     2  9.94       9.94       0.07811   
   1    91   1     0     2     2  10.1       10.1       0.1172    
   1    92   1U    0     1     1  10.1       10.1       0.1758    
   1    92   2     0     1     1  10.1       10.1       0.08788   
   1    93   1     0     2     2  10.3       10.3       0.1318    
   1    94   1U    0     1     1  10.3       10.3       0.1977    
   1    94   2     0     2     2  10.4       10.4       0.09886   
   1    95   1     0     2     2  10.5       10.5       0.1483    
   1    96   1     0     3     3  10.7       10.7       0.2224    
   1    97   1U    0     1     1  10.7       10.7       0.3337    
   1    97   2     0     2     2  10.9       10.9       0.1668    
   1    98   1     0     3     3  11.2       11.2       0.2502    
   1    99   1U    0     1     1  11.2       11.2       0.3754    
   1    99   2     0     3     3  11.3       11.3       0.1877    
   1   100   1     0     3     3  11.6       11.6       0.2815    
   1   101   1     0     4     4  12.1       12.1       0.4223    
   1   102   1     0     4     4  12.7       12.7       0.6334    
   1   103   1U    0     1     1  12.7       12.7       0.9501    
   1   103   2     0     4     4  13.2       13.2       0.4751    
   1   104   1U    0     1     1  13.2       13.2       0.7126    
   1   104   2     0     2     2  13.5       13.5       0.3563    
   1   105   1U    0     1     1  13.5       13.5       0.5344    
   1   105   2U    0     1     1  13.5       13.5       0.2672    
   1   105   3     0     2     2  13.7       13.7       0.1336    
   1   106   1U    0     1     1  13.7       13.7       0.2004    
   1   106   2     0     1     1  13.8       13.8       0.1002    
   1   107   1U    0     1     1  13.8       13.8       0.1503    
   1   107   2     0     1     1  13.8       13.8       0.07516   
   1   108   1U    0     1     1  13.8       13.8       0.1127    
   1   108   2     0     2     2  13.9       13.9       0.05637   
   1   109   1U    0     1     1  13.9       13.9       0.08455   
   1   109   2     0     2     2  13.9       13.9       0.04228   
   1   110   1     0     2     2  14.0       14.0       0.06341   
   1   111   1U    0     1     1  14.0       14.0       0.09512   
   1   111   2     0     2     2  14.0       14.0       0.04756   
   1   112   1U    0     1     1  14.0       14.0       0.07134   
   1   112   2     0     2     2  14.1       14.1       0.03567   
   1   113   1     0     2     2  14.1       14.1       0.05351   
   1   114   1U    0     1     1  14.1       14.1       0.08026   
   1   114   2     0     2     2  14.2       14.2       0.04013   
   1   115   1     0     2     2  14.2       14.2       0.06019   
   1   116   1U    0     1     1  14.2       14.2       0.09029   
   1   116   2     0     2     2  14.3       14.3       0.04514   
   1   117   1     0     2     2  14.3       14.3       0.06772   
   1   118   1U    0     1     1  14.3       14.3       0.1016    
   1   118   2     0     2     2  14.4       14.4       0.05079   
   1   119   1     0     2     2  14.5       14.5       0.07618   
   1   120   1U    0     1     1  14.5       14.5       0.1143    
   1   120   2U    0     2     2  14.5       14.5       0.05714   
   1   120   3     0     2     2  14.5       14.5       0.02857   
   1   121   1     0     2     2  14.5       14.5       0.04285   
   1   122   1     0     2     2  14.6       14.6       0.06428   
   1   123   1     0     2     2  14.7       14.7       0.09642   
   1   124   1U    0     1     1  14.7       14.7       0.1446    
   1   124   2     0     2     2  14.8       14.8       0.07231   
   1   125   1U    0     1     1  14.8       14.8       0.1085    
   1   125   2     0     2     2  14.8       14.8       0.05424   
   1   126   1     0     2     2  14.9       14.9       0.08135   
   1   127   1     0     2     2  15.0       15.0       0.1220    
   1   128   1U    0     1     1  15.0       15.0       0.1830    
   1   128   2     0     2     2  15.1       15.1       0.09152   
   1   129   1     0     2     2  15.3       15.3       0.1373    
   1   130   1U    0     1     1  15.3       15.3       0.2059    
   1   130   2     0     2     2  15.4       15.4       0.1030    
   1   131   1     0     2     2  15.5       15.5       0.1544    
   1   132   1     0     3     3  15.7       15.7       0.2317    
   1   133   1U    0     1     1  15.7       15.7       0.3475    
   1   133   2     0     2     2  15.9       15.9       0.1737    
   1   134   1     0     3     3  16.2       16.2       0.2606    
   1   135   1     0     4     4  16.6       16.6       0.3909    
   1   136   1     0     4     4  17.2       17.2       0.5864    
   1   137   1     0     4     4  18.0       18.0       0.8796    
   1   138   1U    0     1     1  18.0       18.0       1.319     
   1   138   2     0     3     3  18.7       18.7       0.6597    
   1   139   1U    0     0     0  18.7       18.7       0.9896    
   1   139   2U    0     1     1  18.7       18.7       0.2474    
   1   139   3     0     2     2  18.8       18.8       0.1237    
   1   140   1U    0     1     1  18.8       18.8       0.1855    
   1   140   2     0     1     1  18.9       18.9       0.09277   
   1   141   1U    0     1     1  18.9       18.9       0.1392    
   1   141   2     0     1     1  19.0       19.0       0.06958   
   1   142   1U    0     1     1  19.0       19.0       0.1044    
   1   142   2     0     2     2  19.0       19.0       0.05218   
   1   143   1U    0     1     1  19.0       19.0       0.07828   
   1   143   2     0     2     2  19.1       19.1       0.03914   
   1   144   1     0     2     2  19.1       19.1       0.05871   
   1   145   1U    0     1     1  19.1       19.1       0.08806   
   1   145   2     0     2     2  19.2       19.2       0.04403   
   1   146   1U    0     1     1  19.2       19.2       0.06604   
   1   146   2     0     2     2  19.2       19.2       0.03302   
   1   147   1     0     2     2  19.3       19.3       0.04953   
   1   148   1U    0     1     1  19.3       19.3       0.07430   
   1   148   2     0     2     2  19.3       19.3       0.03715   
   1   149   1     0     2     2  19.4       19.4       0.05573   
   1   150   1U    0     1     1  19.4       19.4       0.08359   
   1   150   2     0     2     2  19.4       19.4       0.04179   
   1   151   1     0     2     2  19.5       19.5       0.06269   
   1   152   1U    0     1     1  19.5       19.5       0.09404   
   1   152   2     0     2     2  19.5       19.5       0.04702   
   1   153   1     0     2     2  19.6       19.6       0.07053   
   1   154   1U    0     1     1  19.6       19.6       0.1058    
   1   154   2     0     2     2  19.6       19.6       0.05290   
   1   155   1     0     2     2  19.7       19.7       0.07934   
   1   156   1U    0     1     1  19.7       19.7       0.1190    
   1   156   2     0     2     2  19.8       19.8       0.05951   
   1   157   1     0     2     2  19.9       19.9       0.08926   
   1   158   1U    0     1     1  19.9       19.9       0.1339    
   1   158   2     0     2     2  19.9       19.9       0.06695   
   1   159   1     0     2     2  20.0       20.0       0.1004    
   1   160   1U    0     1     1  20.0       20.0       0.1506    
   1   160   2     0     2     2  20.1       20.1       0.07531   
   1   161   1     0     2     2  20.2       20.2       0.1130    
   1   162   1U    0     1     1  20.2       20.2       0.1695    
   1   162   2     0     2     2  20.3       20.3       0.08473   
   1   163   1     0     2     2  20.4       20.4       0.1271    
   1   164   1     0     2     2  20.6       20.6       0.1906    
   1   165   1U    0     1     1  20.6       20.6       0.2860    
   1   165   2     0     2     2  20.8       20.8       0.1430    
   1   166   1     0     3     3  21.0       21.0       0.2145    
   1   167   1     0     4     4  21.3       21.3       0.3217    
   1   168   1U    0     1     1  21.3       21.3       0.4826    
   1   168   2     0     3     3  21.5       21.5       0.2413    
   1   169   1     0     4     4  21.9       21.9       0.3619    
   1   170   1     0     4     4  22.4       22.4       0.5429    
   1   171   1     0     4     4  23.3       23.3       0.8143    
   1   172   1U    0     1     1  23.3       23.3       1.221     
   1   172   2U    0     2     2  23.3       23.3       0.6107    
   1   172   3     0     2     2  23.6       23.6       0.3054    
   1   173   1U    0     1     1  23.6       23.6       0.4580    
   1   173   2     0     2     2  23.8       23.8       0.2290    
   1   174   1U    0     1     1  23.8       23.8       0.3435    
   1   174   2U    0     2     2  23.8       23.8       0.1718    
   1   174   3     0     1     1  23.9       23.9       0.08588   
   1   175   1U    0     1     1  23.9       23.9       0.1288    
   1   175   2     0     1     1  23.9       23.9       0.06441   
   1   176   1U    0     1     1  23.9       23.9       0.09662   
   1   176   2     0     1     1  24.0       24.0       0.04831   
   1   177   1     0     2     2  24.1       24.1       0.07246   
   1   178   1U    0     1     1  24.1       24.1       0.1087    
   1   178   2     0     2     2  24.1       24.1       0.05435   
   1   179   1U    0     1     1  24.1       24.1       0.08152   
   1   179   2     0     2     2  24.2       24.2       0.04076   
   1   180   1     0     2     2  24.2       24.2       0.06114   
   1   181   1U    0     1     1  24.2       24.2       0.09171   
   1   181   2     0     2     2  24.3       24.3       0.04586   
   1   182   1     0     2     2  24.3       24.3       0.06878   
   1   183   1U    0     1     1  24.3       24.3       0.1032    
   1   183   2     0     2     2  24.4       24.4       0.05159   
   1   184   1U    0     1     1  24.4       24.4       0.07738   
   1   184   2     0     2     2  24.4       24.4       0.03869   
   1   185   1     0     2     2  24.5       24.5       0.05804   
   1   186   1U    0     2     2  24.5       24.5       0.08706   
   1   186   2     0     2     2  24.5       24.5       0.04353   
   1   187   1     0     2     2  24.6       24.6       0.06529   
   1   188   1     0     2     2  24.7       24.7       0.09794   
   1   189   1U    0     1     1  24.7       24.7       0.1469    
   1   189   2     0     2     2  24.8       24.8       0.07345   
   1   190   1U    0     1     1  24.8       24.8       0.1102    
   1   190   2     0     2     2  24.8       24.8       0.05509   
   1   191   1     0     2     2  24.9       24.9       0.08264   
   1   192   1U    0     1     1  24.9       24.9       0.1240    
   1   192   2     0     2     2  25.0       25.0       0.06198   
   1   193   1     0     2     2  25.0       25.0       0.09296   
   1   194   1     0     2     2  25.2       25.2       0.1394    
   1   195   1U    0     1     1  25.2       25.2       0.2092    
   1   195   2     0     2     2  25.3       25.3       0.1046    
   1   196   1U    0     2     2  25.3       25.3       0.1569    
   1   196   2     0     2     2  25.4       25.4       0.07844   
   1   197   1     0     2     2  25.5       25.5       0.1177    
   1   198   1U    0     2     2  25.5       25.5       0.1765    
   1   198   2     0     2     2  25.6       25.6       0.08824   
   1   199   1     0     2     2  25.7       25.7       0.1324    
   1   200   1     0     2     2  25.9       25.9       0.1985    
   1   201   1U    0     1     1  25.9       25.9       0.2978    
   1   201   2     0     2     2  26.1       26.1       0.1489    
   1   202   1     0     3     3  26.3       26.3       0.2234    
   1   203   1     0     4     4  26.6       26.6       0.3350    
   1   204   1     0     4     4  27.1       27.1       0.5026    
   1   205   1     0     4     4  27.9       27.9       0.7539    
   1   206   1U    0     1     1  27.9       27.9       1.131     
   1   206   2     0     3     3  28.4       28.4       0.5654    
   1   207   1U    0     1     1  28.4       28.4       0.8481    
   1   207   2     0     2     2  28.9       28.9       0.4240    
   1   208   1U    0     1     1  28.9       28.9       0.6361    
   1   208   2U    0     1     1  28.9       28.9       0.3180    
   1   208   3     0     2     2  29.0       29.0       0.1590    
   1   209   1U    0     1     1  29.0       29.0       0.2385    
   1   209   2U    0     1     1  29.0       29.0       0.1193    
   1   209   3     0     2     2  29.1       29.1       0.05963   
   1   210   1U    0     1     1  29.1       29.1       0.08945   
   1   210   2     0     2     2  29.1       29.1       0.04472   
   1   211   1     0     2     2  29.2       29.2       0.06709   
   1   212   1U    0     1     1  29.2       29.2       0.1006    
   1   212   2     0     2     2  29.2       29.2       0.05031   
   1   213   1U    0     2     2  29.2       29.2       0.07547   
   1   213   2     0     2     2  29.3       29.3       0.03774   
   1   214   1     0     2     2  29.3       29.3       0.05660   
   1   215   1U    0     1     1  29.3       29.3       0.08491   
   1   215   2     0     2     2  29.4       29.4       0.04245   
   1   216   1     0     2     2  29.4       29.4       0.06368   
   1   217   1U    0     1     1  29.4       29.4       0.09552   
   1   217   2     0     2     2  29.5       29.5       0.04776   
   1   218   1     0     2     2  29.6       29.6       0.07164   
   1   219   1U    0     1     1  29.6       29.6       0.1075    
   1   219   2     0     2     2  29.6       29.6       0.05373   
   1   220   1U    0     1     1  29.6       29.6       0.08059   
   1   220   2     0     2     2  29.7       29.7       0.04030   
   1   221   1     0     2     2  29.7       29.7       0.06045   
   1   222   1     0     2     2  29.8       29.8       0.09067   
   1   223   1U    0     1     1  29.8       29.8       0.1360    
   1   223   2     0     2     2  29.9       29.9       0.06800   
   1   224   1     0     2     2  30.0       30.0       0.1020    
   1   225   1U    0     1     1  30.0       30.0       0.1530    
   1   225   2     0     2     2  30.1       30.1       0.07650   
   1   226   1     0     2     2  30.2       30.2       0.1148    
   1   227   1U    0     1     1  30.2       30.2       0.1721    
   1   227   2     0     2     2  30.3       30.3       0.08606   
   1   228   1U    0     1     1  30.3       30.3       0.1291    
   1   228   2     0     1     1  30.3       30.3       0.06455   
   1   229   1     0     2     2  30.4       30.4       0.09682   
   1   230   1     0     2     2  30.6       30.6       0.1452    
   1   231   1U    0     1     1  30.6       30.6       0.2178    
   1   231   2     0     2     2  30.7       30.7       0.1089    
   1   232   1     0     2     2  30.8       30.8       0.1634    
   1   233   1     0     3     3  31.1       31.1       0.2451    
   1   234   1U    0     1     1  31.1       31.1       0.3676    
   1   234   2     0     3     3  31.3       31.3       0.1838    
   1   235   1     0     3     3  31.5       31.5       0.2757    
   1   236   1     0     4     4  32.0       32.0       0.4136    
   1   237   1     0     4     4  32.6       32.6       0.6204    
   1   238   1     0     4     4  33.5       33.5       0.9305    
   1   239   1U    0     1     1  33.5       33.5       1.396     
   1   239   2U    0     1     1  33.5       33.5       0.6979    
   1   239   3     0     2     2  33.9       33.9       0.3490    
   1   240   1U    0     1     1  33.9       33.9       0.5234    
   1   240   2U    0     1     1  33.9       33.9       0.2617    
   1   240   3     0     2     2  34.0       34.0       0.1309    
   1   241   1U    0     1     1  34.0       34.0       0.1963    
   1   241   2     0     2     2  34.1       34.1       0.09814   
   1   242   1U    0     1     1  34.1       34.1       0.1472    
   1   242   2     0     2     2  34.2       34.2       0.07361   
   1   243   1U    0     1     1  34.2       34.2       0.1104    
   1   243   2     0     2     2  34.2       34.2       0.05521   
   1   244   1U    0     1     1  34.2       34.2       0.08281   
   1   244   2     0     2     2  34.3       34.3       0.04140   
   1   245   1     0     2     2  34.3       34.3       0.06211   
   1   246   1U    0     1     1  34.3       34.3       0.09316   
   1   246   2     0     2     2  34.4       34.4       0.04658   
   1   247   1     0     2     2  34.4       34.4       0.06987   
   1   248   1U    0     1     1  34.4       34.4       0.1048    
   1   248   2     0     2     2  34.5       34.5       0.05240   
   1   249   1     0     2     2  34.6       34.6       0.07860   
   1   250   1U    0     1     1  34.6       34.6       0.1179    
   1   250   2     0     2     2  34.6       34.6       0.05895   
   1   251   1U    0     1     1  34.6       34.6       0.08843   
   1   251   2     0     2     2  34.7       34.7       0.04421   
   1   252   1     0     2     2  34.7       34.7       0.06632   
   1   253   1     0     2     2  34.8       34.8       0.09948   
   1   254   1U    0     1     1  34.8       34.8       0.1492    
   1   254   2     0     2     2  34.9       34.9       0.07461   
   1   255   1     0     2     2  35.0       35.0       0.1119    
   1   256   1U    0     1     1  35.0       35.0       0.1679    
   1   256   2     0     2     2  35.1       35.1       0.08394   
   1   257   1     0     2     2  35.2       35.2       0.1259    
   1   258   1U    0     1     1  35.2       35.2       0.1889    
   1   258   2     0     2     2  35.3       35.3       0.09443   
   1   259   1     0     2     2  35.5       35.5       0.1416    
   1   260   1U    0     1     1  35.5       35.5       0.2125    
   1   260   2     0     2     2  35.6       35.6       0.1062    
   1   261   1     0     2     2  35.7       35.7       0.1594    
   1   262   1     0     3     3  36.0       36.0       0.2390    
   1   263   1U    0     1     1  36.0       36.0       0.3585    
   1   263   2     0     3     3  36.1       36.1       0.1793    
   1   264   1     0     3     3  36.4       36.4       0.2689    
   1   265   1     0     4     4  36.8       36.8       0.4034    
   1   266   1     0     4     4  37.4       37.4       0.6050    
   1   267   1     0     4     4  38.3       38.3       0.9075    
   1   268   1U    0     1     1  38.3       38.3       1.361     
   1   268   2U    0     2     2  38.3       38.3       0.6807    
   1   268   3     0     2     2  38.7       38.7       0.3403    
   1   269   1U    0     1     1  38.7       38.7       0.5105    
   1   269   2     0     2     2  38.9       38.9       0.2552    
   1   270   1U    0     1     1  38.9       38.9       0.3829    
   1   270   2U    0     1     1  38.9       38.9       0.1914    
   1   270   3     0     1     1  39.0       39.0       0.09572   
   1   271   1U    0     1     1  39.0       39.0       0.1436    
   1   271   2     0     1     1  39.1       39.1       0.07179   
   1   272   1U    0     1     1  39.1       39.1       0.1077    
   1   272   2     0     2     2  39.1       39.1       0.05384   
   1   273   1U    0     2     2  39.1       39.1       0.08076   
   1   273   2     0     2     2  39.2       39.2       0.04038   
   1   274   1     0     2     2  39.2       39.2       0.06057   
   1   275   1U    0     1     1  39.2       39.2       0.09086   
   1   275   2     0     2     2  39.3       39.3       0.04543   
   1   276   1     0     2     2  39.4       39.4       0.06814   
   1   277   1U    0     1     1  39.4       39.4       0.1022    
   1   277   2     0     2     2  39.4       39.4       0.05111   
   1   278   1     0     2     2  39.5       39.5       0.07666   
   1   279   1U    0     1     1  39.5       39.5       0.1150    
   1   279   2     0     2     2  39.5       39.5       0.05750   
   1   280   1     0     2     2  39.6       39.6       0.08624   
   1   281   1U    0     1     1  39.6       39.6       0.1294    
   1   281   2     0     2     2  39.7       39.7       0.06468   
   1   282   1U    0     1     1  39.7       39.7       0.09702   
   1   282   2     0     2     2  39.7       39.7       0.04851   
   1   283   1     0     2     2  39.8       39.8       0.07277   
   1   284   1     0     2     2  39.9       39.9       0.1092    
   1   285   1U    0     1     1  39.9       39.9       0.1637    
   1   285   2     0     2     2  40.0       40.0       0.08186   
   1   286   1     0     2     2  40.1       40.1       0.1228    
   1   287   1U    0     1     1  40.1       40.1       0.1842    
   1   287   2     0     2     2  40.2       40.2       0.09210   
   1   288   1     0     2     2  40.4       40.4       0.1381    
   1   289   1U    0     1     1  40.4       40.4       0.2072    
   1   289   2     0     2     2  40.5       40.5       0.1036    
   1   290   1     0     2     2  40.6       40.6       0.1554    
   1   291   1U    0     1     1  40.6       40.6       0.2331    
   1   291   2     0     2     2  40.7       40.7       0.1166    
   1   292   1     0     2     2  40.9       40.9       0.1748    
   1   293   1     0     3     3  41.2       41.2       0.2623    
   1   294   1     0     4     4  41.6       41.6       0.3934    
   1   295   1     0     5     5  42.2       42.2       0.5901    
   1   296   1     0     4     4  43.0       43.0       0.8851    
   1   297   1U    0     1     1  43.0       43.0       1.328     
   1   297   2     0     3     3  43.7       43.7       0.6638    
   1   298   1U    0     1     1  43.7       43.7       0.9958    
   1   298   2U    0     1     1  43.7       43.7       0.4979    
   1   298   3     0     2     2  44.0       44.0       0.2489    
   1   299   1U    0     1     1  44.0       44.0       0.3734    
   1   299   2U    0     1     1  44.0       44.0       0.1867    
   1   299   3     0     1     1  44.1       44.1       0.09335   
   1   300   1U    0     1     1  44.1       44.1       0.1400    
   1   300   2     0     1     1  44.1       44.1       0.07002   
   1   301   1U    0     1     1  44.1       44.1       0.1050    
   1   301   2     0     1     1  44.2       44.2       0.05251   
   1   302   1     0     2     2  44.3       44.3       0.07877   
   1   303   1U    0     1     1  44.3       44.3       0.1182    
   1   303   2     0     2     2  44.3       44.3       0.05908   
   1   304   1U    0     1     1  44.3       44.3       0.08861   
   1   304   2     0     2     2  44.4       44.4       0.04431   
   1   305   1     0     2     2  44.4       44.4       0.06646   
   1   306   1U    0     1     1  44.4       44.4       0.09969   
   1   306   2     0     2     2  44.5       44.5       0.04984   
   1   307   1     0     2     2  44.5       44.5       0.07477   
   1   308   1U    0     1     1  44.5       44.5       0.1122    
   1   308   2     0     2     2  44.6       44.6       0.05608   
   1   309   1U    0     1     1  44.6       44.6       0.08411   
   1   309   2     0     2     2  44.6       44.6       0.04206   
   1   310   1     0     2     2  44.7       44.7       0.06308   
   1   311   1U    0     1     1  44.7       44.7       0.09463   
   1   311   2     0     2     2  44.8       44.8       0.04731   
   1   312   1     0     2     2  44.8       44.8       0.07097   
   1   313   1     0     2     2  44.9       44.9       0.1065    
   1   314   1     0     2     2  45.0       45.0       0.06705   
   1   315   1     0     2     2  45.1       45.1       0.1000    
   1   316   1     0     2     2  45.2       45.2       0.1000    
   1   317   1     0     2     2  45.3       45.3       0.1000    
   1   318   1     0     2     2  45.4       45.4       0.1000    
   1   319   1     0     2     2  45.5       45.5       0.1000    
   1   320   1     0     2     2  45.6       45.6       0.1000    
   1   321   1     0     2     2  45.7       45.7       0.1000    
   1   322   1     0     2     2  45.8       45.8       0.1000    
   1   323   1     0     2     2  45.9       45.9       0.1000    
   1   324   1     0     2     2  46.0       46.0       0.1000    
   1   325   1     0     2     2  46.1       46.1       0.1000    
   1   326   1     0     2     2  46.2       46.2       0.1000    
   1   327   1     0     2     2  46.3       46.3       0.1000    
   1   328   1     0     2     2  46.4       46.4       0.1000    
   1   329   1     0     2     2  46.5       46.5       0.1000    
   1   330   1     0     2     2  46.6       46.6       0.1000    
   1   331   1     0     2     2  46.7       46.7       0.1000    
   1   332   1     0     2     2  46.8       46.8       0.1000    
   1   333   1     0     2     2  46.9       46.9       0.1000    
   1   334   1     0     2     2  47.0       47.0       0.1000    
   1   335   1     0     2     2  47.1       47.1       0.1000    
   1   336   1     0     2     2  47.2       47.2       0.1000    
   1   337   1     0     2     2  47.3       47.3       0.1000    
   1   338   1     0     2     2  47.4       47.4       0.1000    
   1   339   1     0     2     2  47.5       47.5       0.1000    
   1   340   1     0     2     2  47.6       47.6       0.1000    
   1   341   1     0     2     2  47.7       47.7       0.1000    
   1   342   1     0     2     2  47.8       47.8       0.1000    
   1   343   1     0     2     2  47.9       47.9       0.1000    
   1   344   1     0     2     2  48.0       48.0       0.1000    
   1   345   1     0     2     2  48.1       48.1       0.1000    
   1   346   1     0     2     2  48.2       48.2       0.1000    
   1   347   1     0     2     2  48.3       48.3       0.1000    
   1   348   1     0     2     2  48.4       48.4       0.1000    
   1   349   1     0     2     2  48.5       48.5       0.1000    
   1   350   1     0     2     2  48.6       48.6       0.1000    
   1   351   1     0     2     2  48.7       48.7       0.1000    
   1   352   1     0     2     2  48.8       48.8       0.1000    
   1   353   1     0     2     2  48.9       48.9       0.1000    
   1   354   1     0     1     1  49.0       49.0       0.1000    
   1   355   1     0     1     1  49.1       49.1       0.1000    
   1   356   1     0     2     2  49.2       49.2       0.1000    
   1   357   1U    0     1     1  49.2       49.2       0.1000    
   1   357   2     0     2     2  49.2       49.2       0.05000   
   1   358   1     0     2     2  49.3       49.3       0.05000   
   1   359   1     0     2     2  49.4       49.4       0.07500   
   1   360   1     0     2     2  49.4       49.4       0.02500   
   1   361   1U    0     1     1  49.4       49.4       0.1000    
   1   361   2     0     2     2  49.5       49.5       0.05000   
   1   362   1     0     2     2  49.5       49.5       0.05000   
   1   363   1U    0     1     1  49.5       49.5       0.1000    
   1   363   2     0     2     2  49.5       49.5       0.05000   
   1   364   1     0     2     2  49.6       49.6       0.05000   
   1   365   1     0     2     2  49.7       49.7       0.07500   
   1   366   1     0     1     1  49.7       49.7       0.02500   
   1   367   1U    0     1     1  49.7       49.7       0.1000    
   1   367   2     0     2     2  49.8       49.8       0.05000   
   1   368   1     0     2     2  49.8       49.8       0.05000   
   1   369   1     0     2     2  49.9       49.9       0.1000    
   1   370   1     0     2     2  50.0       50.0       0.1000    
   1   371   1     0     2     2  50.1       50.1       0.1000    
   1   372   1     0     2     2  50.2       50.2       0.1000    
   1   373   1     0     2     2  50.3       50.3       0.1000    
   1   374   1     0     2     2  50.4       50.4       0.1000    
   1   375   1     0     2     2  50.5       50.5       0.1000    
   1   376   1     0     2     2  50.6       50.6       0.1000    
   1   377   1     0     2     2  50.7       50.7       0.1000    
   1   378   1     0     2     2  50.8       50.8       0.1000    
   1   379   1     0     2     2  50.9       50.9       0.1000    
   1   380   1     0     2     2  51.0       51.0       0.1000    
   1   381   1     0     2     2  51.1       51.1       0.1000    
   1   382   1     0     2     2  51.2       51.2       0.1000    
   1   383   1     0     2     2  51.3       51.3       0.1000    
   1   384   1     0     2     2  51.4       51.4       0.1000    
   1   385   1     0     2     2  51.5       51.5       0.1000    
   1   386   1     0     2     2  51.6       51.6       0.1000    
   1   387   1     0     2     2  51.7       51.7       0.1000    
   1   388   1     0     2     2  51.8       51.8       0.1000    
   1   389   1     0     2     2  51.9       51.9       0.1000    
   1   390   1     0     2     2  52.0       52.0       0.1000    
   1   391   1     0     2     2  52.1       52.1       0.1000    
   1   392   1     0     2     2  52.2       52.2       0.1000    
   1   393   1     0     2     2  52.3       52.3       0.1000    
   1   394   1     0     2     2  52.4       52.4       0.1000    
   1   395   1     0     2     2  52.5       52.5       0.1000    
   1   396   1     0     2     2  52.6       52.6       0.1000    
   1   397   1     0     2     2  52.7       52.7       0.1000    
   1   398   1     0     2     2  52.8       52.8       0.1000    
   1   399   1     0     2     2  52.9       52.9       0.1000    
   1   400   1     0     2     2  53.0       53.0       0.1000    
   1   401   1     0     2     2  53.1       53.1       0.1000    
   1   402   1     0     2     2  53.2       53.2       0.1000    
   1   403   1     0     2     2  53.3       53.3       0.1000    
   1   404   1     0     2     2  53.4       53.4       0.1000    
   1   405   1     0     2     2  53.5       53.5       0.1000    
   1   406   1     0     2     2  53.6       53.6       0.1000    
   1   407   1     0     2     2  53.7       53.7       0.1000    
   1   408   1     0     2     2  53.8       53.8       0.1000    
   1   409   1     0     2     2  53.9       53.9       0.1000    
   1   410   1     0     1     1  54.0       54.0       0.1000    
   1   411   1     0     1     1  54.1       54.1       0.1000    
   1   412   1     0     2     2  54.2       54.2       0.1000    
   1   413   1U    0     1     1  54.2       54.2       0.1000    
   1   413   2     0     2     2  54.2       54.2       0.05000   
   1   414   1     0     2     2  54.3       54.3       0.05000   
   1   415   1U    0     1     1  54.3       54.3       0.1000    
   1   415   2     0     2     2  54.4       54.4       0.05000   
   1   416   1     0     2     2  54.4       54.4       0.05000   
   1   417   1U    0     1     1  54.4       54.4       0.1000    
   1   417   2     0     2     2  54.4       54.4       0.05000   
   1   418   1     0     2     2  54.5       54.5       0.05000   
   1   419   1U    0     1     1  54.5       54.5       0.07500   
   1   419   2     0     2     2  54.5       54.5       0.03750   
   1   420   1     0     2     2  54.6       54.6       0.06250   
   1   421   1U    0     1     1  54.6       54.6       0.1000    
   1   421   2     0     2     2  54.7       54.7       0.05000   
   1   422   1     0     2     2  54.7       54.7       0.05000   
   1   423   1U    0     2     2  54.7       54.7       0.1000    
   1   423   2     0     2     2  54.8       54.8       0.05000   
   1   424   1     0     2     2  54.8       54.8       0.05000   
   1   425   1     0     2     2  54.9       54.9       0.07500   
   1   426   1     0     1     1  54.9       54.9       0.02500   
   1   427   1     0     2     2  55.0       55.0       0.1000    
                          
 THE ANALYSIS HAS COMPLETED SUCCESSFULLY
