 Abaqus/Standard 2022.HF6                  DATE 13-Sep-2023 TIME 16:04:24
 SUMMARY OF JOB INFORMATION:
 STEP  INC ATT SEVERE EQUIL TOTAL  TOTAL      STEP       INC OF       DOF    IF
               DISCON ITERS ITERS  TIME/    TIME/LPF    TIME/LPF    MONITOR RIKS
               ITERS               FREQ
   1     1   1     0     2     2  0.100      0.100      0.1000    
   1     2   1     0     2     2  0.200      0.200      0.1000    
   1     3   1     0     1     1  0.300      0.300      0.1000    
   1     4   1     0     2     2  0.400      0.400      0.1000    
   1     5   1     0     2     2  0.500      0.500      0.1000    
   1     6   1     0     2     2  0.600      0.600      0.1000    
   1     7   1     0     1     1  0.700      0.700      0.1000    
   1     8   1     0     2     2  0.800      0.800      0.1000    
   1     9   1     0     2     2  0.900      0.900      0.1000    
   1    10   1     0     1     1  1.00       1.00       0.1000    
   1    11   1     0     1     1  1.10       1.10       0.1000    
   1    12   1     0     2     2  1.20       1.20       0.1000    
   1    13   1U    0     1     1  1.20       1.20       0.1000    
   1    13   2     0     2     2  1.25       1.25       0.05000   
   1    14   1     0     2     2  1.30       1.30       0.05000   
   1    15   1     0     3     3  1.40       1.40       0.1000    
   1    16   1U    0     1     1  1.40       1.40       0.1000    
   1    16   2     0     3     3  1.45       1.45       0.05000   
   1    17   1     0     2     2  1.50       1.50       0.05000   
   1    18   1     0     2     2  1.58       1.58       0.07500   
   1    19   1     0     2     2  1.60       1.60       0.02500   
   1    20   1U    0     2     2  1.60       1.60       0.1000    
   1    20   2     0     2     2  1.65       1.65       0.05000   
   1    21   1     0     2     2  1.70       1.70       0.05000   
   1    22   1     0     2     2  1.78       1.78       0.07500   
   1    23   1     0     1     1  1.80       1.80       0.02500   
   1    24   1     0     3     3  1.90       1.90       0.1000    
   1    25   1     0     2     2  2.00       2.00       0.1000    
   1    26   1     0     2     2  2.10       2.10       0.1000    
   1    27   1     0     2     2  2.20       2.20       0.1000    
   1    28   1     0     2     2  2.30       2.30       0.1000    
   1    29   1     0     3     3  2.40       2.40       0.1000    
   1    30   1     0     2     2  2.50       2.50       0.1000    
   1    31   1     0     2     2  2.60       2.60       0.1000    
   1    32   1     0     1     1  2.70       2.70       0.1000    
   1    33   1     0     1     1  2.80       2.80       0.1000    
   1    34   1     0     2     2  2.90       2.90       0.1000    
   1    35   1     0     2     2  3.00       3.00       0.1000    
   1    36   1     0     1     1  3.10       3.10       0.1000    
   1    37   1     0     2     2  3.20       3.20       0.1000    
   1    38   1     0     2     2  3.30       3.30       0.1000    
   1    39   1     0     2     2  3.40       3.40       0.1000    
   1    40   1     0     2     2  3.50       3.50       0.1000    
   1    41   1     0     3     3  3.60       3.60       0.1000    
   1    42   1     0     2     2  3.70       3.70       0.1000    
   1    43   1     0     2     2  3.80       3.80       0.1000    
   1    44   1     0     2     2  3.90       3.90       0.1000    
   1    45   1     0     2     2  4.00       4.00       0.1000    
   1    46   1     0     2     2  4.10       4.10       0.1000    
   1    47   1     0     2     2  4.20       4.20       0.1000    
   1    48   1     0     3     3  4.30       4.30       0.1000    
   1    49   1     0     2     2  4.40       4.40       0.1000    
   1    50   1     0     2     2  4.50       4.50       0.1000    
   1    51   1     0     2     2  4.60       4.60       0.1000    
   1    52   1     0     2     2  4.70       4.70       0.1000    
   1    53   1     0     2     2  4.80       4.80       0.1000    
   1    54   1     0     1     1  4.90       4.90       0.1000    
   1    55   1     0     3     3  5.00       5.00       0.1000    
   1    56   1U    0     1     1  5.00       5.00       0.1688    
   1    56   2U    0     1     1  5.00       5.00       0.08438   
   1    56   3U    0     2     2  5.00       5.00       0.04219   
   1    56   4     0     3     3  5.02       5.02       0.02109   
   1    57   1     0     2     2  5.05       5.05       0.03164   
   1    58   1     0     2     2  5.10       5.10       0.04746   
   1    59   1     0     2     2  5.17       5.17       0.07119   
   1    60   1     0     2     2  5.28       5.28       0.1068    
   1    61   1     0     2     2  5.44       5.44       0.1602    
   1    62   1     0     2     2  5.68       5.68       0.2403    
   1    63   1     0     2     2  6.04       6.04       0.3604    
   1    64   1U    0     2     2  6.04       6.04       0.5406    
   1    64   2     0     3     3  6.31       6.31       0.2703    
   1    65   1     0     3     3  6.71       6.71       0.4055    
   1    66   1     0     4     4  7.32       7.32       0.6082    
   1    67   1     0     4     4  8.24       8.24       0.9123    
   1    68   1U    0     1     1  8.24       8.24       1.368     
   1    68   2U    0     1     1  8.24       8.24       0.6842    
   1    68   3     0     2     2  8.58       8.58       0.3421    
   1    69   1U    0     1     1  8.58       8.58       0.5132    
   1    69   2U    0     1     1  8.58       8.58       0.2566    
   1    69   3     0     2     2  8.71       8.71       0.1283    
   1    70   1U    0     1     1  8.71       8.71       0.1924    
   1    70   2U    0     1     1  8.71       8.71       0.09622   
   1    70   3     0     1     1  8.75       8.75       0.04811   
   1    71   1     0     2     2  8.83       8.83       0.07216   
   1    72   1U    0     1     1  8.83       8.83       0.1082    
   1    72   2     0     2     2  8.88       8.88       0.05412   
   1    73   1U    0     1     1  8.88       8.88       0.08118   
   1    73   2     0     2     2  8.92       8.92       0.04059   
   1    74   1U    0     1     1  8.92       8.92       0.06089   
   1    74   2     0     2     2  8.95       8.95       0.03044   
   1    75   1     0     2     2  9.00       9.00       0.04567   
   1    76   1U    0     1     1  9.00       9.00       0.06850   
   1    76   2     0     2     2  9.03       9.03       0.03425   
   1    77   1U    0     1     1  9.03       9.03       0.05137   
   1    77   2     0     2     2  9.06       9.06       0.02569   
   1    78   1     0     2     2  9.10       9.10       0.03853   
   1    79   1     0     2     2  9.15       9.15       0.05780   
   1    80   1U    0     1     1  9.15       9.15       0.08669   
   1    80   2     0     2     2  9.20       9.20       0.04335   
   1    81   1U    0     1     1  9.20       9.20       0.06502   
   1    81   2     0     2     2  9.23       9.23       0.03251   
   1    82   1     0     2     2  9.28       9.28       0.04876   
   1    83   1U    0     1     1  9.28       9.28       0.07315   
   1    83   2     0     2     2  9.31       9.31       0.03657   
   1    84   1     0     2     2  9.37       9.37       0.05486   
   1    85   1U    0     1     1  9.37       9.37       0.08229   
   1    85   2     0     2     2  9.41       9.41       0.04115   
   1    86   1     0     2     2  9.47       9.47       0.06172   
   1    87   1U    0     2     2  9.47       9.47       0.09258   
   1    87   2     0     2     2  9.52       9.52       0.04629   
   1    88   1     0     2     2  9.59       9.59       0.06943   
   1    89   1U    0     1     1  9.59       9.59       0.1041    
   1    89   2     0     2     2  9.64       9.64       0.05207   
   1    90   1     0     2     2  9.72       9.72       0.07811   
   1    91   1U    0     1     1  9.72       9.72       0.1172    
   1    91   2     0     2     2  9.78       9.78       0.05858   
   1    92   1     0     2     2  9.86       9.86       0.08788   
   1    93   1U    0     1     1  9.86       9.86       0.1318    
   1    93   2     0     2     2  9.93       9.93       0.06591   
   1    94   1     0     2     2  10.0       10.0       0.09886   
   1    95   1U    0     1     1  10.0       10.0       0.1483    
   1    95   2     0     1     1  10.1       10.1       0.07415   
   1    96   1     0     2     2  10.2       10.2       0.1112    
   1    97   1     0     2     2  10.4       10.4       0.1668    
   1    98   1U    0     1     1  10.4       10.4       0.2502    
   1    98   2     0     2     2  10.5       10.5       0.1251    
   1    99   1     0     2     2  10.7       10.7       0.1877    
   1   100   1     0     3     3  11.0       11.0       0.2815    
   1   101   1U    0     1     1  11.0       11.0       0.4223    
   1   101   2     0     3     3  11.2       11.2       0.2111    
   1   102   1     0     3     3  11.5       11.5       0.3167    
   1   103   1     0     4     4  12.0       12.0       0.4751    
   1   104   1     0     4     4  12.7       12.7       0.7126    
   1   105   1U    0     1     1  12.7       12.7       1.069     
   1   105   2     0     3     3  13.2       13.2       0.5344    
   1   106   1U    0     1     1  13.2       13.2       0.8017    
   1   106   2     0     2     2  13.6       13.6       0.4008    
   1   107   1U    0     1     1  13.6       13.6       0.6013    
   1   107   2U    0     1     1  13.6       13.6       0.3006    
   1   107   3     0     2     2  13.8       13.8       0.1503    
   1   108   1U    0     1     1  13.8       13.8       0.2255    
   1   108   2U    0     1     1  13.8       13.8       0.1127    
   1   108   3     0     1     1  13.8       13.8       0.05637   
   1   109   1U    0     1     1  13.8       13.8       0.08455   
   1   109   2     0     1     1  13.9       13.9       0.04228   
   1   110   1     0     2     2  13.9       13.9       0.06341   
   1   111   1U    0     1     1  13.9       13.9       0.09512   
   1   111   2     0     2     2  14.0       14.0       0.04756   
   1   112   1U    0     1     1  14.0       14.0       0.07134   
   1   112   2     0     2     2  14.0       14.0       0.03567   
   1   113   1     0     2     2  14.1       14.1       0.05351   
   1   114   1U    0     1     1  14.1       14.1       0.08026   
   1   114   2     0     2     2  14.1       14.1       0.04013   
   1   115   1     0     2     2  14.2       14.2       0.06019   
   1   116   1U    0     1     1  14.2       14.2       0.09029   
   1   116   2     0     2     2  14.2       14.2       0.04514   
   1   117   1     0     2     2  14.3       14.3       0.06772   
   1   118   1U    0     1     1  14.3       14.3       0.1016    
   1   118   2     0     2     2  14.3       14.3       0.05079   
   1   119   1U    0     1     1  14.3       14.3       0.07618   
   1   119   2     0     2     2  14.4       14.4       0.03809   
   1   120   1     0     2     2  14.4       14.4       0.05714   
   1   121   1U    0     1     1  14.4       14.4       0.08570   
   1   121   2     0     1     1  14.5       14.5       0.04285   
   1   122   1     0     2     2  14.5       14.5       0.06428   
   1   123   1U    0     1     1  14.5       14.5       0.09642   
   1   123   2     0     1     1  14.6       14.6       0.04821   
   1   124   1     0     2     2  14.7       14.7       0.07231   
   1   125   1     0     2     2  14.8       14.8       0.1085    
   1   126   1U    0     1     1  14.8       14.8       0.1627    
   1   126   2     0     2     2  14.9       14.9       0.08135   
   1   127   1U    0     1     1  14.9       14.9       0.1220    
   1   127   2     0     2     2  14.9       14.9       0.06101   
   1   128   1     0     2     2  15.0       15.0       0.09152   
   1   129   1     0     2     2  15.1       15.1       0.1373    
   1   130   1U    0     1     1  15.1       15.1       0.2059    
   1   130   2     0     2     2  15.2       15.2       0.1030    
   1   131   1     0     2     2  15.4       15.4       0.1544    
   1   132   1     0     2     2  15.6       15.6       0.2317    
   1   133   1U    0     1     1  15.6       15.6       0.3475    
   1   133   2     0     2     2  15.8       15.8       0.1737    
   1   134   1     0     3     3  16.1       16.1       0.2606    
   1   135   1     0     4     4  16.5       16.5       0.3909    
   1   136   1U    0     1     1  16.5       16.5       0.5864    
   1   136   2     0     3     3  16.7       16.7       0.2932    
   1   137   1     0     3     3  17.2       17.2       0.4398    
   1   138   1     0     4     4  17.8       17.8       0.6597    
   1   139   1U    0     1     1  17.8       17.8       0.9896    
   1   139   2     0     3     3  18.3       18.3       0.4948    
   1   140   1U    0     1     1  18.3       18.3       0.7422    
   1   140   2     0     2     2  18.7       18.7       0.3711    
   1   141   1U    0     1     1  18.7       18.7       0.5566    
   1   141   2U    0     1     1  18.7       18.7       0.2783    
   1   141   3     0     2     2  18.9       18.9       0.1392    
   1   142   1U    0     1     1  18.9       18.9       0.2087    
   1   142   2U    0     1     1  18.9       18.9       0.1044    
   1   142   3     0     1     1  18.9       18.9       0.05218   
   1   143   1     0     2     2  19.0       19.0       0.07828   
   1   144   1U    0     1     1  19.0       19.0       0.1174    
   1   144   2     0     2     2  19.0       19.0       0.05871   
   1   145   1U    0     1     1  19.0       19.0       0.08806   
   1   145   2     0     2     2  19.1       19.1       0.04403   
   1   146   1     0     2     2  19.2       19.2       0.06604   
   1   147   1U    0     1     1  19.2       19.2       0.09907   
   1   147   2     0     2     2  19.2       19.2       0.04953   
   1   148   1U    0     1     1  19.2       19.2       0.07430   
   1   148   2     0     2     2  19.2       19.2       0.03715   
   1   149   1     0     2     2  19.3       19.3       0.05573   
   1   150   1U    0     1     1  19.3       19.3       0.08359   
   1   150   2     0     2     2  19.3       19.3       0.04179   
   1   151   1     0     2     2  19.4       19.4       0.06269   
   1   152   1U    0     1     1  19.4       19.4       0.09404   
   1   152   2     0     2     2  19.4       19.4       0.04702   
   1   153   1     0     2     2  19.5       19.5       0.07053   
   1   154   1U    0     1     1  19.5       19.5       0.1058    
   1   154   2     0     2     2  19.6       19.6       0.05290   
   1   155   1     0     2     2  19.6       19.6       0.07934   
   1   156   1U    0     1     1  19.6       19.6       0.1190    
   1   156   2     0     2     2  19.7       19.7       0.05951   
   1   157   1     0     2     2  19.8       19.8       0.08926   
   1   158   1U    0     1     1  19.8       19.8       0.1339    
   1   158   2     0     2     2  19.9       19.9       0.06695   
   1   159   1     0     2     2  20.0       20.0       0.1004    
   1   160   1U    0     1     1  20.0       20.0       0.1506    
   1   160   2     0     2     2  20.0       20.0       0.07531   
   1   161   1     0     2     2  20.2       20.2       0.1130    
   1   162   1     0     2     2  20.3       20.3       0.1695    
   1   163   1U    0     1     1  20.3       20.3       0.2542    
   1   163   2     0     2     2  20.5       20.5       0.1271    
   1   164   1     0     2     2  20.6       20.6       0.1906    
   1   165   1U    0     1     1  20.6       20.6       0.2860    
   1   165   2     0     2     2  20.8       20.8       0.1430    
   1   166   1     0     2     2  21.0       21.0       0.2145    
   1   167   1     0     3     3  21.3       21.3       0.3217    
   1   168   1     0     4     4  21.8       21.8       0.4826    
   1   169   1     0     4     4  22.5       22.5       0.7238    
   1   170   1U    0     1     1  22.5       22.5       1.086     
   1   170   2     0     3     3  23.1       23.1       0.5429    
   1   171   1U    0     2     2  23.1       23.1       0.8143    
   1   171   2     0     2     2  23.5       23.5       0.4072    
   1   172   1U    0     1     1  23.5       23.5       0.6107    
   1   172   2     0     2     2  23.8       23.8       0.3054    
   1   173   1U    0     1     1  23.8       23.8       0.4580    
   1   173   2U    0     1     1  23.8       23.8       0.2290    
   1   173   3     0     2     2  23.9       23.9       0.1145    
   1   174   1U    0     1     1  23.9       23.9       0.1718    
   1   174   2     0     2     2  24.0       24.0       0.08588   
   1   175   1U    0     1     1  24.0       24.0       0.1288    
   1   175   2     0     2     2  24.0       24.0       0.06441   
   1   176   1U    0     1     1  24.0       24.0       0.09662   
   1   176   2     0     2     2  24.1       24.1       0.04831   
   1   177   1     0     2     2  24.2       24.2       0.07246   
   1   178   1U    0     1     1  24.2       24.2       0.1087    
   1   178   2     0     2     2  24.2       24.2       0.05435   
   1   179   1U    0     1     1  24.2       24.2       0.08152   
   1   179   2     0     2     2  24.3       24.3       0.04076   
   1   180   1     0     2     2  24.3       24.3       0.06114   
   1   181   1U    0     1     1  24.3       24.3       0.09171   
   1   181   2     0     2     2  24.4       24.4       0.04586   
   1   182   1     0     2     2  24.4       24.4       0.06878   
   1   183   1U    0     1     1  24.4       24.4       0.1032    
   1   183   2     0     2     2  24.5       24.5       0.05159   
   1   184   1     0     2     2  24.6       24.6       0.07738   
   1   185   1U    0     1     1  24.6       24.6       0.1161    
   1   185   2     0     2     2  24.6       24.6       0.05804   
   1   186   1     0     2     2  24.7       24.7       0.08706   
   1   187   1U    0     1     1  24.7       24.7       0.1306    
   1   187   2     0     2     2  24.8       24.8       0.06529   
   1   188   1     0     2     2  24.9       24.9       0.09794   
   1   189   1     0     2     2  25.0       25.0       0.1469    
   1   190   1U    0     1     1  25.0       25.0       0.2204    
   1   190   2     0     2     2  25.1       25.1       0.1102    
   1   191   1U    0     1     1  25.1       25.1       0.1653    
   1   191   2     0     2     2  25.2       25.2       0.08264   
   1   192   1     0     2     2  25.3       25.3       0.1240    
   1   193   1U    0     1     1  25.3       25.3       0.1859    
   1   193   2     0     2     2  25.4       25.4       0.09296   
   1   194   1     0     2     2  25.6       25.6       0.1394    
   1   195   1     0     2     2  25.8       25.8       0.2092    
   1   196   1U    0     1     1  25.8       25.8       0.3138    
   1   196   2     0     2     2  25.9       25.9       0.1569    
   1   197   1     0     3     3  26.2       26.2       0.2353    
   1   198   1     0     3     3  26.5       26.5       0.3530    
   1   199   1     0     4     4  27.1       27.1       0.5295    
   1   200   1     0     4     4  27.9       27.9       0.7942    
   1   201   1U    0     1     1  27.9       27.9       1.191     
   1   201   2     0     4     4  28.4       28.4       0.5956    
   1   202   1U    0     1     1  28.4       28.4       0.8935    
   1   202   2     0     2     2  28.9       28.9       0.4467    
   1   203   1U    0     0     0  28.9       28.9       0.6701    
   1   203   2U    0     1     1  28.9       28.9       0.1675    
   1   203   3     0     2     2  29.0       29.0       0.08376   
   1   204   1U    0     1     1  29.0       29.0       0.1256    
   1   204   2     0     2     2  29.0       29.0       0.06282   
   1   205   1U    0     1     1  29.0       29.0       0.09423   
   1   205   2     0     2     2  29.1       29.1       0.04712   
   1   206   1     0     2     2  29.2       29.2       0.07067   
   1   207   1U    0     1     1  29.2       29.2       0.1060    
   1   207   2     0     2     2  29.2       29.2       0.05301   
   1   208   1U    0     1     1  29.2       29.2       0.07951   
   1   208   2     0     2     2  29.2       29.2       0.03975   
   1   209   1     0     2     2  29.3       29.3       0.05963   
   1   210   1U    0     1     1  29.3       29.3       0.08945   
   1   210   2     0     2     2  29.4       29.4       0.04472   
   1   211   1     0     2     2  29.4       29.4       0.06709   
   1   212   1U    0     1     1  29.4       29.4       0.1006    
   1   212   2     0     2     2  29.5       29.5       0.05031   
   1   213   1     0     2     2  29.5       29.5       0.07547   
   1   214   1U    0     1     1  29.5       29.5       0.1132    
   1   214   2     0     2     2  29.6       29.6       0.05660   
   1   215   1U    0     1     1  29.6       29.6       0.08491   
   1   215   2     0     2     2  29.6       29.6       0.04245   
   1   216   1     0     2     2  29.7       29.7       0.06368   
   1   217   1U    0     2     2  29.7       29.7       0.09552   
   1   217   2     0     2     2  29.8       29.8       0.04776   
   1   218   1     0     2     2  29.8       29.8       0.07164   
   1   219   1     0     2     2  29.9       29.9       0.1075    
   1   220   1U    0     1     1  29.9       29.9       0.1612    
   1   220   2     0     2     2  30.0       30.0       0.08059   
   1   221   1     0     2     2  30.1       30.1       0.1209    
   1   222   1U    0     1     1  30.1       30.1       0.1813    
   1   222   2     0     2     2  30.2       30.2       0.09067   
   1   223   1     0     2     2  30.4       30.4       0.1360    
   1   224   1U    0     1     1  30.4       30.4       0.2040    
   1   224   2     0     2     2  30.5       30.5       0.1020    
   1   225   1     0     2     2  30.6       30.6       0.1530    
   1   226   1     0     3     3  30.8       30.8       0.2295    
   1   227   1U    0     1     1  30.8       30.8       0.3443    
   1   227   2     0     2     2  31.0       31.0       0.1721    
   1   228   1     0     3     3  31.3       31.3       0.2582    
   1   229   1     0     4     4  31.7       31.7       0.3873    
   1   230   1     0     4     4  32.2       32.2       0.5809    
   1   231   1     0     4     4  33.1       33.1       0.8714    
   1   232   1U    0     1     1  33.1       33.1       1.307     
   1   232   2     0     2     2  33.8       33.8       0.6535    
   1   233   1U    0     1     1  33.8       33.8       0.9803    
   1   233   2U    0     1     1  33.8       33.8       0.4902    
   1   233   3     0     2     2  34.0       34.0       0.2451    
   1   234   1U    0     1     1  34.0       34.0       0.3676    
   1   234   2U    0     1     1  34.0       34.0       0.1838    
   1   234   3     0     2     2  34.1       34.1       0.09190   
   1   235   1U    0     1     1  34.1       34.1       0.1379    
   1   235   2     0     2     2  34.2       34.2       0.06893   
   1   236   1U    0     1     1  34.2       34.2       0.1034    
   1   236   2     0     2     2  34.2       34.2       0.05170   
   1   237   1     0     2     2  34.3       34.3       0.07754   
   1   238   1U    0     1     1  34.3       34.3       0.1163    
   1   238   2     0     2     2  34.4       34.4       0.05816   
   1   239   1U    0     1     1  34.4       34.4       0.08724   
   1   239   2     0     2     2  34.4       34.4       0.04362   
   1   240   1     0     2     2  34.5       34.5       0.06543   
   1   241   1U    0     1     1  34.5       34.5       0.09814   
   1   241   2     0     2     2  34.5       34.5       0.04907   
   1   242   1     0     2     2  34.6       34.6       0.07361   
   1   243   1U    0     1     1  34.6       34.6       0.1104    
   1   243   2     0     2     2  34.7       34.7       0.05521   
   1   244   1     0     2     2  34.7       34.7       0.08281   
   1   245   1U    0     1     1  34.7       34.7       0.1242    
   1   245   2     0     2     2  34.8       34.8       0.06211   
   1   246   1     0     2     2  34.9       34.9       0.09316   
   1   247   1U    0     1     1  34.9       34.9       0.1397    
   1   247   2     0     2     2  35.0       35.0       0.06987   
   1   248   1     0     2     2  35.1       35.1       0.1048    
   1   249   1U    0     1     1  35.1       35.1       0.1572    
   1   249   2     0     2     2  35.1       35.1       0.07860   
   1   250   1     0     2     2  35.3       35.3       0.1179    
   1   251   1U    0     1     1  35.3       35.3       0.1769    
   1   251   2     0     2     2  35.4       35.4       0.08843   
   1   252   1     0     2     2  35.5       35.5       0.1326    
   1   253   1U    0     1     1  35.5       35.5       0.1990    
   1   253   2     0     2     2  35.6       35.6       0.09948   
   1   254   1     0     2     2  35.7       35.7       0.1492    
   1   255   1U    0     1     1  35.7       35.7       0.2238    
   1   255   2     0     2     2  35.8       35.8       0.1119    
   1   256   1     0     2     2  36.0       36.0       0.1679    
   1   257   1     0     3     3  36.3       36.3       0.2518    
   1   258   1     0     4     4  36.6       36.6       0.3777    
   1   259   1     0     4     4  37.2       37.2       0.5666    
   1   260   1     0     4     4  38.1       38.1       0.8499    
   1   261   1U    0     1     1  38.1       38.1       1.275     
   1   261   2     0     3     3  38.7       38.7       0.6374    
   1   262   1U    0     1     1  38.7       38.7       0.9561    
   1   262   2U    0     1     1  38.7       38.7       0.4781    
   1   262   3     0     2     2  38.9       38.9       0.2390    
   1   263   1U    0     1     1  38.9       38.9       0.3585    
   1   263   2U    0     1     1  38.9       38.9       0.1793    
   1   263   3     0     1     1  39.0       39.0       0.08963   
   1   264   1U    0     1     1  39.0       39.0       0.1345    
   1   264   2     0     1     1  39.1       39.1       0.06723   
   1   265   1U    0     1     1  39.1       39.1       0.1008    
   1   265   2     0     2     2  39.1       39.1       0.05042   
   1   266   1     0     2     2  39.2       39.2       0.07563   
   1   267   1U    0     1     1  39.2       39.2       0.1134    
   1   267   2     0     2     2  39.3       39.3       0.05672   
   1   268   1U    0     1     1  39.3       39.3       0.08508   
   1   268   2     0     2     2  39.3       39.3       0.04254   
   1   269   1     0     2     2  39.4       39.4       0.06381   
   1   270   1U    0     1     1  39.4       39.4       0.09572   
   1   270   2     0     2     2  39.4       39.4       0.04786   
   1   271   1     0     2     2  39.5       39.5       0.07179   
   1   272   1U    0     1     1  39.5       39.5       0.1077    
   1   272   2     0     2     2  39.6       39.6       0.05384   
   1   273   1     0     2     2  39.6       39.6       0.08076   
   1   274   1U    0     1     1  39.6       39.6       0.1211    
   1   274   2     0     2     2  39.7       39.7       0.06057   
   1   275   1     0     2     2  39.8       39.8       0.09086   
   1   276   1U    0     1     1  39.8       39.8       0.1363    
   1   276   2     0     2     2  39.9       39.9       0.06814   
   1   277   1     0     2     2  40.0       40.0       0.1022    
   1   278   1U    0     1     1  40.0       40.0       0.1533    
   1   278   2     0     2     2  40.0       40.0       0.07666   
   1   279   1     0     2     2  40.1       40.1       0.1150    
   1   280   1U    0     1     1  40.1       40.1       0.1725    
   1   280   2     0     2     2  40.2       40.2       0.08624   
   1   281   1     0     2     2  40.4       40.4       0.1294    
   1   282   1U    0     1     1  40.4       40.4       0.1940    
   1   282   2     0     2     2  40.5       40.5       0.09702   
   1   283   1     0     2     2  40.6       40.6       0.1455    
   1   284   1     0     2     2  40.8       40.8       0.2183    
   1   285   1U    0     1     1  40.8       40.8       0.3275    
   1   285   2     0     2     2  41.0       41.0       0.1637    
   1   286   1     0     3     3  41.2       41.2       0.2456    
   1   287   1     0     4     4  41.6       41.6       0.3684    
   1   288   1     0     4     4  42.2       42.2       0.5526    
   1   289   1     0     4     4  43.0       43.0       0.8289    
   1   290   1U    0     1     1  43.0       43.0       1.243     
   1   290   2     0     3     3  43.6       43.6       0.6217    
   1   291   1U    0     1     1  43.6       43.6       0.9325    
   1   291   2     0     2     2  44.1       44.1       0.4662    
   1   292   1U    0     0     0  44.1       44.1       0.6994    
   1   292   2U    0     1     1  44.1       44.1       0.1748    
   1   292   3     0     2     2  44.2       44.2       0.08742   
   1   293   1U    0     1     1  44.2       44.2       0.1311    
   1   293   2     0     2     2  44.2       44.2       0.06557   
   1   294   1U    0     1     1  44.2       44.2       0.09835   
   1   294   2     0     2     2  44.3       44.3       0.04917   
   1   295   1     0     2     2  44.3       44.3       0.07376   
   1   296   1U    0     1     1  44.3       44.3       0.1106    
   1   296   2     0     2     2  44.4       44.4       0.05532   
   1   297   1U    0     1     1  44.4       44.4       0.08298   
   1   297   2     0     2     2  44.4       44.4       0.04149   
   1   298   1     0     2     2  44.5       44.5       0.06224   
   1   299   1U    0     1     1  44.5       44.5       0.09335   
   1   299   2     0     2     2  44.6       44.6       0.04668   
   1   300   1     0     2     2  44.6       44.6       0.07002   
   1   301   1U    0     1     1  44.6       44.6       0.1050    
   1   301   2     0     2     2  44.7       44.7       0.05251   
   1   302   1     0     2     2  44.8       44.8       0.07877   
   1   303   1U    0     1     1  44.8       44.8       0.1182    
   1   303   2     0     2     2  44.8       44.8       0.05908   
   1   304   1     0     2     2  44.9       44.9       0.08861   
   1   305   1     0     2     2  45.0       45.0       0.09790   
   1   306   1     0     2     2  45.1       45.1       0.1000    
   1   307   1     0     2     2  45.2       45.2       0.1000    
   1   308   1     0     2     2  45.3       45.3       0.1000    
   1   309   1     0     2     2  45.4       45.4       0.1000    
   1   310   1     0     2     2  45.5       45.5       0.1000    
   1   311   1     0     2     2  45.6       45.6       0.1000    
   1   312   1     0     2     2  45.7       45.7       0.1000    
   1   313   1     0     2     2  45.8       45.8       0.1000    
   1   314   1     0     2     2  45.9       45.9       0.1000    
   1   315   1     0     2     2  46.0       46.0       0.1000    
   1   316   1     0     2     2  46.1       46.1       0.1000    
   1   317   1     0     2     2  46.2       46.2       0.1000    
   1   318   1     0     2     2  46.3       46.3       0.1000    
   1   319   1     0     2     2  46.4       46.4       0.1000    
   1   320   1     0     2     2  46.5       46.5       0.1000    
   1   321   1     0     2     2  46.6       46.6       0.1000    
   1   322   1     0     2     2  46.7       46.7       0.1000    
   1   323   1     0     2     2  46.8       46.8       0.1000    
   1   324   1     0     2     2  46.9       46.9       0.1000    
   1   325   1     0     2     2  47.0       47.0       0.1000    
   1   326   1     0     2     2  47.1       47.1       0.1000    
   1   327   1     0     2     2  47.2       47.2       0.1000    
   1   328   1     0     2     2  47.3       47.3       0.1000    
   1   329   1     0     2     2  47.4       47.4       0.1000    
   1   330   1     0     2     2  47.5       47.5       0.1000    
   1   331   1     0     2     2  47.6       47.6       0.1000    
   1   332   1     0     2     2  47.7       47.7       0.1000    
   1   333   1     0     2     2  47.8       47.8       0.1000    
   1   334   1     0     2     2  47.9       47.9       0.1000    
   1   335   1     0     2     2  48.0       48.0       0.1000    
   1   336   1     0     2     2  48.1       48.1       0.1000    
   1   337   1     0     2     2  48.2       48.2       0.1000    
   1   338   1     0     2     2  48.3       48.3       0.1000    
   1   339   1     0     2     2  48.4       48.4       0.1000    
   1   340   1     0     2     2  48.5       48.5       0.1000    
   1   341   1     0     2     2  48.6       48.6       0.1000    
   1   342   1     0     2     2  48.7       48.7       0.1000    
   1   343   1     0     2     2  48.8       48.8       0.1000    
   1   344   1     0     1     1  48.9       48.9       0.1000    
   1   345   1     0     1     1  49.0       49.0       0.1000    
   1   346   1     0     2     2  49.1       49.1       0.1000    
   1   347   1U    0     1     1  49.1       49.1       0.1000    
   1   347   2     0     2     2  49.2       49.2       0.05000   
   1   348   1     0     2     2  49.2       49.2       0.05000   
   1   349   1U    0     1     1  49.2       49.2       0.1000    
   1   349   2     0     2     2  49.2       49.2       0.05000   
   1   350   1     0     2     2  49.3       49.3       0.05000   
   1   351   1     0     2     2  49.4       49.4       0.07500   
   1   352   1     0     2     2  49.4       49.4       0.02500   
   1   353   1U    0     1     1  49.4       49.4       0.1000    
   1   353   2     0     2     2  49.5       49.5       0.05000   
   1   354   1     0     2     2  49.5       49.5       0.05000   
   1   355   1U    0     1     1  49.5       49.5       0.1000    
   1   355   2     0     2     2  49.5       49.5       0.05000   
   1   356   1     0     2     2  49.6       49.6       0.05000   
   1   357   1     0     2     2  49.7       49.7       0.07500   
   1   358   1     0     1     1  49.7       49.7       0.02500   
   1   359   1     0     2     2  49.8       49.8       0.1000    
   1   360   1     0     3     3  49.9       49.9       0.1000    
   1   361   1     0     2     2  50.0       50.0       0.1000    
   1   362   1     0     2     2  50.1       50.1       0.1000    
   1   363   1     0     2     2  50.2       50.2       0.1000    
   1   364   1     0     2     2  50.3       50.3       0.1000    
   1   365   1     0     2     2  50.4       50.4       0.1000    
   1   366   1     0     2     2  50.5       50.5       0.1000    
   1   367   1     0     2     2  50.6       50.6       0.1000    
   1   368   1     0     2     2  50.7       50.7       0.1000    
   1   369   1     0     2     2  50.8       50.8       0.1000    
   1   370   1     0     2     2  50.9       50.9       0.1000    
   1   371   1     0     2     2  51.0       51.0       0.1000    
   1   372   1     0     2     2  51.1       51.1       0.1000    
   1   373   1     0     2     2  51.2       51.2       0.1000    
   1   374   1     0     2     2  51.3       51.3       0.1000    
   1   375   1     0     2     2  51.4       51.4       0.1000    
   1   376   1     0     2     2  51.5       51.5       0.1000    
   1   377   1     0     2     2  51.6       51.6       0.1000    
   1   378   1     0     2     2  51.7       51.7       0.1000    
   1   379   1     0     2     2  51.8       51.8       0.1000    
   1   380   1     0     2     2  51.9       51.9       0.1000    
   1   381   1     0     2     2  52.0       52.0       0.1000    
   1   382   1     0     2     2  52.1       52.1       0.1000    
   1   383   1     0     2     2  52.2       52.2       0.1000    
   1   384   1     0     2     2  52.3       52.3       0.1000    
   1   385   1     0     2     2  52.4       52.4       0.1000    
   1   386   1     0     2     2  52.5       52.5       0.1000    
   1   387   1     0     2     2  52.6       52.6       0.1000    
   1   388   1     0     2     2  52.7       52.7       0.1000    
   1   389   1     0     2     2  52.8       52.8       0.1000    
   1   390   1     0     2     2  52.9       52.9       0.1000    
   1   391   1     0     2     2  53.0       53.0       0.1000    
   1   392   1     0     2     2  53.1       53.1       0.1000    
   1   393   1     0     2     2  53.2       53.2       0.1000    
   1   394   1     0     2     2  53.3       53.3       0.1000    
   1   395   1     0     2     2  53.4       53.4       0.1000    
   1   396   1     0     2     2  53.5       53.5       0.1000    
   1   397   1     0     2     2  53.6       53.6       0.1000    
   1   398   1     0     2     2  53.7       53.7       0.1000    
   1   399   1     0     2     2  53.8       53.8       0.1000    
   1   400   1     0     1     1  53.9       53.9       0.1000    
   1   401   1     0     1     1  54.0       54.0       0.1000    
   1   402   1     0     2     2  54.1       54.1       0.1000    
   1   403   1     0     2     2  54.2       54.2       0.1000    
   1   404   1U    0     1     1  54.2       54.2       0.1000    
   1   404   2     0     2     2  54.2       54.2       0.05000   
   1   405   1     0     2     2  54.3       54.3       0.05000   
   1   406   1     0     2     2  54.4       54.4       0.07500   
   1   407   1     0     2     2  54.4       54.4       0.02500   
   1   408   1U    0     1     1  54.4       54.4       0.1000    
   1   408   2     0     2     2  54.5       54.5       0.05000   
   1   409   1     0     2     2  54.5       54.5       0.05000   
   1   410   1U    0     1     1  54.5       54.5       0.1000    
   1   410   2     0     2     2  54.5       54.5       0.05000   
   1   411   1     0     2     2  54.6       54.6       0.05000   
   1   412   1     0     2     2  54.7       54.7       0.07500   
   1   413   1     0     1     1  54.7       54.7       0.02500   
   1   414   1U    0     2     2  54.7       54.7       0.1000    
   1   414   2     0     2     2  54.8       54.8       0.05000   
   1   415   1     0     2     2  54.8       54.8       0.05000   
   1   416   1U    0     1     1  54.8       54.8       0.1000    
   1   416   2     0     2     2  54.9       54.9       0.05000   
   1   417   1     0     2     2  54.9       54.9       0.05000   
   1   418   1     0     2     2  55.0       55.0       0.1000    
                          
 THE ANALYSIS HAS COMPLETED SUCCESSFULLY
