1

   Abaqus 2022.HF6                                  Date 13-Sep-2023   Time 16:04:23
   For use by RWTH AACHEN UNIVERSITY under license from Dassault Systemes or its subsidiary.

                                                                                 
                                                                                 
 STEP    1     INCREMENT     1     STEP TIME    0.00    


                        S T E P       1     S T A T I C   A N A L Y S I S


                                                                                          

     AUTOMATIC TIME CONTROL WITH -
          A SUGGESTED INITIAL TIME INCREMENT OF                0.100    
          AND A TOTAL TIME PERIOD OF                            55.0    
          THE MINIMUM TIME INCREMENT ALLOWED IS                5.000-150
          THE MAXIMUM TIME INCREMENT ALLOWED IS                 55.0    

     LINEAR EQUATION SOLVER TYPE         ITERATIVE
     RELATIVE TOLERANCE OF CONVERGENCE   1.000E-05
     MAXIMUM NUMBER OF ITERATIONS        200

 CONVERGENCE TOLERANCE PARAMETERS FOR FORCE    
     CRITERION FOR RESIDUAL FORCE     FOR A NONLINEAR PROBLEM          5.000E-03
     CRITERION FOR DISP.    CORRECTION IN A NONLINEAR PROBLEM          1.000E-02
     INITIAL VALUE OF TIME AVERAGE FORCE                               1.000E-02
     AVERAGE FORCE     IS TIME AVERAGE FORCE    
     ALTERNATE CRIT. FOR RESIDUAL FORCE     FOR A NONLINEAR PROBLEM    2.000E-02
     CRITERION FOR ZERO FORCE     RELATIVE TO TIME AVRG. FORCE         1.000E-05
     CRITERION FOR RESIDUAL FORCE     WHEN THERE IS ZERO FLUX          1.000E-05
     CRITERION FOR DISP.    CORRECTION WHEN THERE IS ZERO FLUX         1.000E-03
     CRITERION FOR RESIDUAL FORCE     FOR A LINEAR INCREMENT           1.000E-08
     FIELD CONVERSION RATIO                                             1.00    
     CRITERION FOR ZERO FORCE     REL. TO TIME AVRG. MAX. FORCE        1.000E-05
     CRITERION FOR ZERO DISP.    RELATIVE TO CHARACTERISTIC LENGTH     1.000E-08

     VOLUMETRIC STRAIN COMPATIBILITY TOLERANCE FOR HYBRID SOLIDS       1.000E-05
     AXIAL STRAIN COMPATIBILITY TOLERANCE FOR HYBRID BEAMS             1.000E-05
     TRANS. SHEAR STRAIN COMPATIBILITY TOLERANCE FOR HYBRID BEAMS      1.000E-05
     SOFT CONTACT CONSTRAINT COMPATIBILITY TOLERANCE FOR P>P0          5.000E-03
     SOFT CONTACT CONSTRAINT COMPATIBILITY TOLERANCE FOR P=0.0         0.100    
     CONTACT FORCE ERROR TOLERANCE FOR CONVERT SDI=YES                 1.00    
     DISPLACEMENT COMPATIBILITY TOLERANCE FOR DCOUP ELEMENTS           1.000E-05
     ROTATION COMPATIBILITY TOLERANCE FOR DCOUP ELEMENTS               1.000E-05

 EQUILIBRIUM WILL BE CHECKED FOR SEVERE DISCONTINUITY ITERATIONS

 TIME INCREMENTATION CONTROL PARAMETERS:
 *** FIRST EQUILIBRIUM ITERATION FOR CONSECUTIVE DIVERGENCE CHECK             35
 *** EQUILIBRIUM ITERATION AT WHICH LOG. CONVERGENCE RATE CHECK BEGINS        15
     EQUILIBRIUM ITERATION AFTER WHICH ALTERNATE RESIDUAL IS USED              9
 *** MAXIMUM EQUILIBRIUM ITERATIONS ALLOWED                                   15
 *** EQUILIBRIUM ITERATION COUNT FOR CUT-BACK IN NEXT INCREMENT               28
 *** MAXIMUM EQUILIB. ITERS IN TWO INCREMENTS FOR TIME INCREMENT INCREASE      5
     MAXIMUM ITERATIONS FOR SEVERE DISCONTINUITIES                            50
 *** MAXIMUM ATTEMPTS ALLOWED IN AN INCREMENT                                 45
     MAXIMUM DISCON. ITERS IN TWO INCREMENTS FOR TIME INCREMENT INCREASE      50
     MAXIMUM CONTACT AUGMENTATIONS FOR *SURFACE BEHAVIOR,AUGMENTED LAGRANGE   50
     CUT-BACK FACTOR AFTER DIVERGENCE                                 0.2500    
     CUT-BACK FACTOR FOR TOO SLOW CONVERGENCE                         0.5000    
     CUT-BACK FACTOR AFTER TOO MANY EQUILIBRIUM ITERATIONS            0.7500    
     CUT-BACK FACTOR AFTER TOO MANY SEVERE DISCONTINUITY ITERATIONS   0.2500    
     CUT-BACK FACTOR AFTER PROBLEMS IN ELEMENT ASSEMBLY               0.2500    
     INCREASE FACTOR AFTER TWO INCREMENTS THAT CONVERGE QUICKLY        1.500    
     MAX. TIME INCREMENT INCREASE FACTOR ALLOWED                       1.500    
     MAX. TIME INCREMENT INCREASE FACTOR ALLOWED (DYNAMICS)            1.250    
     MAX. TIME INCREMENT INCREASE FACTOR ALLOWED (DIFFUSION)           2.000    
     MINIMUM TIME INCREMENT RATIO FOR EXTRAPOLATION TO OCCUR          0.1000    
     MAX. RATIO OF TIME INCREMENT TO STABILITY LIMIT                   1.000    
     FRACTION OF STABILITY LIMIT FOR NEW TIME INCREMENT               0.9500    
     TIME INCREMENT INCREASE FACTOR BEFORE A TIME POINT                1.000    

 *** INDICATES USE OF NON-DEFAULT TIME INCREMENTATION CONTROL PARAMETER
     SELECTED WITH *CONTROLS
     GLOBAL STABILIZATION CONTROL IS NOT USED

          PRINT OF INCREMENT NUMBER, TIME, ETC., EVERY    1  INCREMENTS

 LINE SEARCH TOLERANCE PARAMETERS:
 *** MAXIMUM NUMBER OF ZERO-FINDING ITERATIONS                                10
     MAXIMUM CORRECTION SCALE FACTOR                                    1.00    
     MINIMUM CORRECTION SCALE FACTOR                                   1.000E-04
     RESIDUAL REDUCTION FACTOR TO END LINE SEARCHING                   0.250    
     RATIO OF NEW TO OLD SCALE FACTORS TO END LINE SEARCHING           0.100    

 *** INDICATES USE OF NON-DEFAULT LINE SEARCH TOLERANCE PARAMETER
     SELECTED WITH *CONTROLS

     THE MAXIMUM NUMBER OF INCREMENTS IN THIS STEP IS                 *******

          LARGE DISPLACEMENT THEORY WILL BE USED

     LINEAR EXTRAPOLATION WILL BE USED

     CHARACTERISTIC ELEMENT LENGTH     2.727E-03

     DETAILS REGARDING ACTUAL SOLUTION WAVEFRONT REQUESTED

     DETAILED OUTPUT OF DIAGNOSTICS TO DATABASE REQUESTED

     PRINT OF INCREMENT NUMBER, TIME, ETC., TO THE MESSAGE FILE EVERY     1  INCREMENTS
  
     MODEL DECOMPOSITION USED FOR PARALLEL ELEMENT OPERATIONS:
  
        DOMAIN          ELEMENTS          NODES          INTERFACE
       --------        ----------        -------        -----------
           1                  84            215                193
           2                  84            227                210
           3                  82            216                180
           4                  84            250                209
           5                  82            196                179
           6                  84            190                172
           7                  82            228                192
           8                  83            225                196
           9                  82            288                228
          10                  82            318                266
          11                  84            288                252
          12                  84            224                207
          13                  84            204                186
          14                  82            245                214
          15                  84            251                232
          16                  84            241                220
  

     ELEMENT OPERATIONS WILL BE CARRIED OUT IN PARALLEL USING  16 DOMAINS WITH 1 THREAD PER DOMAIN

     COLLECTING MODEL CONSTRAINT INFORMATION FOR OVERCONSTRAINT CHECKS

     COLLECTING STEP CONSTRAINT INFORMATION FOR OVERCONSTRAINT CHECKS


  INCREMENT     1 STARTS. ATTEMPT NUMBER  1, TIME INCREMENT  0.100    
 
     INITIAL ELEMENT LOAD BALANCE
            DOMAIN    1     THREAD    NUMBER OF ELEMENTS
                              1            84
            DOMAIN    2     THREAD    NUMBER OF ELEMENTS
                              1            84
            DOMAIN    3     THREAD    NUMBER OF ELEMENTS
                              1            82
            DOMAIN    4     THREAD    NUMBER OF ELEMENTS
                              1            84
            DOMAIN    5     THREAD    NUMBER OF ELEMENTS
                              1            82
            DOMAIN    6     THREAD    NUMBER OF ELEMENTS
                              1            84
            DOMAIN    7     THREAD    NUMBER OF ELEMENTS
                              1            82
            DOMAIN    8     THREAD    NUMBER OF ELEMENTS
                              1            83
            DOMAIN    9     THREAD    NUMBER OF ELEMENTS
                              1            82
            DOMAIN   10     THREAD    NUMBER OF ELEMENTS
                              1            82
            DOMAIN   11     THREAD    NUMBER OF ELEMENTS
                              1            84
            DOMAIN   12     THREAD    NUMBER OF ELEMENTS
                              1            84
            DOMAIN   13     THREAD    NUMBER OF ELEMENTS
                              1            84
            DOMAIN   14     THREAD    NUMBER OF ELEMENTS
                              1            82
            DOMAIN   15     THREAD    NUMBER OF ELEMENTS
                              1            84
            DOMAIN   16     THREAD    NUMBER OF ELEMENTS
                              1            84
 
	SYMMETRIC ITERATIVE SOLVER RUNNING ON
 	1 HOST:        16 MPI RANKS x 1 THREAD
 	NUMBER OF EQUATIONS:     4002
 	NUMBER OF RHS:           1
 	KRYLOV METHOD:           CG
 	PRECONDITIONER:          PAMG
 	CONVERGENCE TOL:         1.000e-05
 	MAXIMUM ITERATIONS:      200
 	SETUP TIME:              0.2 SEC
 	APPLY TIME:              0.0 SEC
 
    NUMBER OF MATRIX-VECTOR MULTIPLICATIONS: 65
 
 ITERATIVE SOLVER CONVERGED.
 NUM. ITERATIONS =    6 RELATIVE RESIDUAL NORM =  4.309e-06 RHS NORM =  2.547e-02

               CONVERGENCE CHECKS FOR EQUILIBRIUM ITERATION     1


 AVERAGE FORCE                      1.420E-05   TIME AVG. FORCE       1.420E-05
 LARGEST SCALED RESIDUAL FORCE      1.403E-07   AT NODE       1717   DOF  3
   INSTANCE: PART-1-1                                                                        
  CORRESPONDING RESIDUAL FORCE      1.403E-07
 LARGEST INCREMENT OF DISP.         3.208E-06   AT NODE        282   DOF  2
   INSTANCE: PART-1-1                                                                        
 LARGEST CORRECTION TO DISP.        3.208E-06   AT NODE        282   DOF  2
   INSTANCE: PART-1-1                                                                        
          FORCE     EQUILIBRIUM NOT ACHIEVED WITHIN TOLERANCE.
 
	SYMMETRIC ITERATIVE SOLVER RUNNING ON
 	1 HOST:        16 MPI RANKS x 1 THREAD
 	NUMBER OF EQUATIONS:     4002
 	NUMBER OF RHS:           1
 	KRYLOV METHOD:           CG
 	PRECONDITIONER:          PAMG
 	CONVERGENCE TOL:         1.000e-05
 	MAXIMUM ITERATIONS:      200
 	SETUP TIME:              0.1 SEC
 	APPLY TIME:              0.0 SEC
 
    NUMBER OF MATRIX-VECTOR MULTIPLICATIONS: 65
 
 ITERATIVE SOLVER CONVERGED.
 NUM. ITERATIONS =    6 RELATIVE RESIDUAL NORM =  9.945e-06 RHS NORM =  3.304e-07

               CONVERGENCE CHECKS FOR EQUILIBRIUM ITERATION     2


 AVERAGE FORCE                      1.420E-05   TIME AVG. FORCE       1.420E-05
 LARGEST SCALED RESIDUAL FORCE     -1.325E-11   AT NODE       1717   DOF  3
   INSTANCE: PART-1-1                                                                        
  CORRESPONDING RESIDUAL FORCE     -1.325E-11
 LARGEST INCREMENT OF DISP.         3.208E-06   AT NODE        282   DOF  2
   INSTANCE: PART-1-1                                                                        
 LARGEST CORRECTION TO DISP.       -6.847E-11   AT NODE       1698   DOF  1
   INSTANCE: PART-1-1                                                                        
          THE FORCE     EQUILIBRIUM EQUATIONS HAVE CONVERGED

 ITERATION SUMMARY FOR THE INCREMENT:   2 TOTAL ITERATIONS, OF WHICH
   0 ARE SEVERE DISCONTINUITY ITERATIONS AND  2 ARE EQUILIBRIUM ITERATIONS.

 TIME INCREMENT COMPLETED  0.100    ,  FRACTION OF STEP COMPLETED  1.818E-03
 STEP TIME COMPLETED       0.100    ,  TOTAL TIME COMPLETED        0.100    


  INCREMENT     2 STARTS. ATTEMPT NUMBER  1, TIME INCREMENT  0.100    
 
	SYMMETRIC ITERATIVE SOLVER RUNNING ON
 	1 HOST:        16 MPI RANKS x 1 THREAD
 	NUMBER OF EQUATIONS:     4002
 	NUMBER OF RHS:           1
 	KRYLOV METHOD:           CG
 	PRECONDITIONER:          PAMG
 	CONVERGENCE TOL:         1.000e-05
 	MAXIMUM ITERATIONS:      200
 	SETUP TIME:              0.2 SEC
 	APPLY TIME:              0.0 SEC
 
    NUMBER OF MATRIX-VECTOR MULTIPLICATIONS: 65
 
 ITERATIVE SOLVER CONVERGED.
 NUM. ITERATIONS =    6 RELATIVE RESIDUAL NORM =  4.309e-06 RHS NORM =  2.548e-02

               CONVERGENCE CHECKS FOR EQUILIBRIUM ITERATION     1


 AVERAGE FORCE                      1.420E-05   TIME AVG. FORCE       1.420E-05
 LARGEST SCALED RESIDUAL FORCE     -8.543E-07   AT NODE       1596   DOF  1
   INSTANCE: PART-1-1                                                                        
  CORRESPONDING RESIDUAL FORCE     -8.543E-07
 LARGEST INCREMENT OF DISP.        -1.689E-10   AT NODE         23   DOF  3
   INSTANCE: PART-1-1                                                                        
 LARGEST CORRECTION TO DISP.       -3.208E-06   AT NODE        282   DOF  2
   INSTANCE: PART-1-1                                                                        
          FORCE     EQUILIBRIUM NOT ACHIEVED WITHIN TOLERANCE.
 
	SYMMETRIC ITERATIVE SOLVER RUNNING ON
 	1 HOST:        16 MPI RANKS x 1 THREAD
 	NUMBER OF EQUATIONS:     4002
 	NUMBER OF RHS:           1
 	KRYLOV METHOD:           CG
 	PRECONDITIONER:          PAMG
 	CONVERGENCE TOL:         1.000e-05
 	MAXIMUM ITERATIONS:      200
 	SETUP TIME:              0.2 SEC
 	APPLY TIME:              0.0 SEC
 
    NUMBER OF MATRIX-VECTOR MULTIPLICATIONS: 65
 
 ITERATIVE SOLVER CONVERGED.
 NUM. ITERATIONS =    6 RELATIVE RESIDUAL NORM =  4.155e-06 RHS NORM =  1.228e-06

               CONVERGENCE CHECKS FOR EQUILIBRIUM ITERATION     2


 AVERAGE FORCE                      1.420E-05   TIME AVG. FORCE       1.420E-05
 LARGEST SCALED RESIDUAL FORCE      7.884E-12   AT NODE       1717   DOF  1
   INSTANCE: PART-1-1                                                                        
  CORRESPONDING RESIDUAL FORCE      7.884E-12
 LARGEST INCREMENT OF DISP.        -1.199E-14   AT NODE        632   DOF  1
   INSTANCE: PART-1-1                                                                        
 LARGEST CORRECTION TO DISP.        1.689E-10   AT NODE         23   DOF  3
   INSTANCE: PART-1-1                                                                        
          FORCE     EQUILIB. ACCEPTED BASED ON SMALL RESIDUAL AND SMALL MAGNITUDE
           OF THE INCREMENT OF DISPLACEMENT
          TIME INCREMENT MAY NOW INCREASE TO    0.100    

 ITERATION SUMMARY FOR THE INCREMENT:   2 TOTAL ITERATIONS, OF WHICH
   0 ARE SEVERE DISCONTINUITY ITERATIONS AND  2 ARE EQUILIBRIUM ITERATIONS.

 TIME INCREMENT COMPLETED  0.100    ,  FRACTION OF STEP COMPLETED  3.636E-03
 STEP TIME COMPLETED       0.200    ,  TOTAL TIME COMPLETED        0.200    


  INCREMENT     3 STARTS. ATTEMPT NUMBER  1, TIME INCREMENT  0.100    
 
	SYMMETRIC ITERATIVE SOLVER RUNNING ON
 	1 HOST:        16 MPI RANKS x 1 THREAD
 	NUMBER OF EQUATIONS:     4002
 	NUMBER OF RHS:           1
 	KRYLOV METHOD:           CG
 	PRECONDITIONER:          PAMG
 	CONVERGENCE TOL:         1.000e-05
 	MAXIMUM ITERATIONS:      200
 	SETUP TIME:              0.2 SEC
 	APPLY TIME:              0.0 SEC
 
    NUMBER OF MATRIX-VECTOR MULTIPLICATIONS: 74
 
 ITERATIVE SOLVER CONVERGED.
 NUM. ITERATIONS =    7 RELATIVE RESIDUAL NORM =  1.563e-06 RHS NORM =  8.075e-11

               CONVERGENCE CHECKS FOR EQUILIBRIUM ITERATION     1


 AVERAGE FORCE                      1.420E-05   TIME AVG. FORCE       1.420E-05
 LARGEST SCALED RESIDUAL FORCE     -4.602E-15   AT NODE          1   DOF  3
   INSTANCE: PART-1-1                                                                        
  CORRESPONDING RESIDUAL FORCE     -4.602E-15
 LARGEST INCREMENT OF DISP.         6.245E-15   AT NODE        631   DOF  1
   INSTANCE: PART-1-1                                                                        
 LARGEST CORRECTION TO DISP.        1.785E-14   AT NODE        631   DOF  1
   INSTANCE: PART-1-1                                                                        
          THE FORCE     EQUILIBRIUM RESPONSE WAS LINEAR IN THIS INCREMENT
          TIME INCREMENT MAY NOW INCREASE TO    0.150    
          TIME INCREMENT REDUCED TO   0.100     TO MEET NEXT OUTPUT TIME POINT

 ITERATION SUMMARY FOR THE INCREMENT:   1 TOTAL ITERATIONS, OF WHICH
   0 ARE SEVERE DISCONTINUITY ITERATIONS AND  1 ARE EQUILIBRIUM ITERATIONS.

 TIME INCREMENT COMPLETED  0.100    ,  FRACTION OF STEP COMPLETED  5.455E-03
 STEP TIME COMPLETED       0.300    ,  TOTAL TIME COMPLETED        0.300    


  INCREMENT     4 STARTS. ATTEMPT NUMBER  1, TIME INCREMENT  0.100    
 
	SYMMETRIC ITERATIVE SOLVER RUNNING ON
 	1 HOST:        16 MPI RANKS x 1 THREAD
 	NUMBER OF EQUATIONS:     4002
 	NUMBER OF RHS:           1
 	KRYLOV METHOD:           CG
 	PRECONDITIONER:          PAMG
 	CONVERGENCE TOL:         1.000e-05
 	MAXIMUM ITERATIONS:      200
 	SETUP TIME:              0.2 SEC
 	APPLY TIME:              0.0 SEC
 
    NUMBER OF MATRIX-VECTOR MULTIPLICATIONS: 65
 
 ITERATIVE SOLVER CONVERGED.
 NUM. ITERATIONS =    6 RELATIVE RESIDUAL NORM =  4.309e-06 RHS NORM =  2.544e-02

               CONVERGENCE CHECKS FOR EQUILIBRIUM ITERATION     1


 AVERAGE FORCE                      2.838E-05   TIME AVG. FORCE       1.774E-05
 LARGEST SCALED RESIDUAL FORCE      7.147E-07   AT NODE       1596   DOF  1
   INSTANCE: PART-1-1                                                                        
  CORRESPONDING RESIDUAL FORCE      7.147E-07
 LARGEST INCREMENT OF DISP.         3.203E-06   AT NODE        282   DOF  2
   INSTANCE: PART-1-1                                                                        
 LARGEST CORRECTION TO DISP.        3.203E-06   AT NODE        282   DOF  2
   INSTANCE: PART-1-1                                                                        
          FORCE     EQUILIBRIUM NOT ACHIEVED WITHIN TOLERANCE.
 
	SYMMETRIC ITERATIVE SOLVER RUNNING ON
 	1 HOST:        16 MPI RANKS x 1 THREAD
 	NUMBER OF EQUATIONS:     4002
 	NUMBER OF RHS:           1
 	KRYLOV METHOD:           CG
 	PRECONDITIONER:          PAMG
 	CONVERGENCE TOL:         1.000e-05
 	MAXIMUM ITERATIONS:      200
 	SETUP TIME:              0.1 SEC
 	APPLY TIME:              0.0 SEC
 
    NUMBER OF MATRIX-VECTOR MULTIPLICATIONS: 65
 
 ITERATIVE SOLVER CONVERGED.
 NUM. ITERATIONS =    6 RELATIVE RESIDUAL NORM =  4.642e-06 RHS NORM =  9.674e-07

               CONVERGENCE CHECKS FOR EQUILIBRIUM ITERATION     2


 AVERAGE FORCE                      2.838E-05   TIME AVG. FORCE       1.774E-05
 LARGEST SCALED RESIDUAL FORCE     -1.991E-12   AT NODE       1033   DOF  2
   INSTANCE: PART-1-1                                                                        
  CORRESPONDING RESIDUAL FORCE     -1.991E-12
 LARGEST INCREMENT OF DISP.         3.203E-06   AT NODE        282   DOF  2
   INSTANCE: PART-1-1                                                                        
 LARGEST CORRECTION TO DISP.        1.345E-10   AT NODE       1728   DOF  1
   INSTANCE: PART-1-1                                                                        
          THE FORCE     EQUILIBRIUM EQUATIONS HAVE CONVERGED
          TIME INCREMENT MAY NOW INCREASE TO    0.225    
          TIME INCREMENT REDUCED TO   0.100     TO MEET NEXT OUTPUT TIME POINT

 ITERATION SUMMARY FOR THE INCREMENT:   2 TOTAL ITERATIONS, OF WHICH
   0 ARE SEVERE DISCONTINUITY ITERATIONS AND  2 ARE EQUILIBRIUM ITERATIONS.

 TIME INCREMENT COMPLETED  0.100    ,  FRACTION OF STEP COMPLETED  7.273E-03
 STEP TIME COMPLETED       0.400    ,  TOTAL TIME COMPLETED        0.400    


  INCREMENT     5 STARTS. ATTEMPT NUMBER  1, TIME INCREMENT  0.100    
 
	SYMMETRIC ITERATIVE SOLVER RUNNING ON
 	1 HOST:        16 MPI RANKS x 1 THREAD
 	NUMBER OF EQUATIONS:     4002
 	NUMBER OF RHS:           1
 	KRYLOV METHOD:           CG
 	PRECONDITIONER:          PAMG
 	CONVERGENCE TOL:         1.000e-05
 	MAXIMUM ITERATIONS:      200
 	SETUP TIME:              0.2 SEC
 	APPLY TIME:              0.0 SEC
 
    NUMBER OF MATRIX-VECTOR MULTIPLICATIONS: 65
 
 ITERATIVE SOLVER CONVERGED.
 NUM. ITERATIONS =    6 RELATIVE RESIDUAL NORM =  4.309e-06 RHS NORM =  2.545e-02

               CONVERGENCE CHECKS FOR EQUILIBRIUM ITERATION     1


 AVERAGE FORCE                      2.837E-05   TIME AVG. FORCE       1.987E-05
 LARGEST SCALED RESIDUAL FORCE     -1.637E-06   AT NODE       1596   DOF  1
   INSTANCE: PART-1-1                                                                        
  CORRESPONDING RESIDUAL FORCE     -1.637E-06
 LARGEST INCREMENT OF DISP.        -3.097E-10   AT NODE         23   DOF  3
   INSTANCE: PART-1-1                                                                        
 LARGEST CORRECTION TO DISP.       -3.203E-06   AT NODE        282   DOF  2
   INSTANCE: PART-1-1                                                                        
          FORCE     EQUILIBRIUM NOT ACHIEVED WITHIN TOLERANCE.
 
	SYMMETRIC ITERATIVE SOLVER RUNNING ON
 	1 HOST:        16 MPI RANKS x 1 THREAD
 	NUMBER OF EQUATIONS:     4002
 	NUMBER OF RHS:           1
 	KRYLOV METHOD:           CG
 	PRECONDITIONER:          PAMG
 	CONVERGENCE TOL:         1.000e-05
 	MAXIMUM ITERATIONS:      200
 	SETUP TIME:              0.2 SEC
 	APPLY TIME:              0.0 SEC
 
    NUMBER OF MATRIX-VECTOR MULTIPLICATIONS: 65
 
 ITERATIVE SOLVER CONVERGED.
 NUM. ITERATIONS =    6 RELATIVE RESIDUAL NORM =  2.871e-06 RHS NORM =  2.311e-06

               CONVERGENCE CHECKS FOR EQUILIBRIUM ITERATION     2


 AVERAGE FORCE                      2.838E-05   TIME AVG. FORCE       1.987E-05
 LARGEST SCALED RESIDUAL FORCE      2.632E-11   AT NODE       1717   DOF  1
   INSTANCE: PART-1-1                                                                        
  CORRESPONDING RESIDUAL FORCE      2.632E-11
 LARGEST INCREMENT OF DISP.        -2.194E-14   AT NODE        631   DOF  1
   INSTANCE: PART-1-1                                                                        
 LARGEST CORRECTION TO DISP.        3.097E-10   AT NODE         23   DOF  3
   INSTANCE: PART-1-1                                                                        
          FORCE     EQUILIB. ACCEPTED BASED ON SMALL RESIDUAL AND SMALL MAGNITUDE
           OF THE INCREMENT OF DISPLACEMENT
          TIME INCREMENT MAY NOW INCREASE TO    0.225    
          TIME INCREMENT REDUCED TO   0.100     TO MEET NEXT OUTPUT TIME POINT

 ITERATION SUMMARY FOR THE INCREMENT:   2 TOTAL ITERATIONS, OF WHICH
   0 ARE SEVERE DISCONTINUITY ITERATIONS AND  2 ARE EQUILIBRIUM ITERATIONS.

 TIME INCREMENT COMPLETED  0.100    ,  FRACTION OF STEP COMPLETED  9.091E-03
 STEP TIME COMPLETED       0.500    ,  TOTAL TIME COMPLETED        0.500    


  INCREMENT     6 STARTS. ATTEMPT NUMBER  1, TIME INCREMENT  0.100    
 
	SYMMETRIC ITERATIVE SOLVER RUNNING ON
 	1 HOST:        16 MPI RANKS x 1 THREAD
 	NUMBER OF EQUATIONS:     4002
 	NUMBER OF RHS:           1
 	KRYLOV METHOD:           CG
 	PRECONDITIONER:          PAMG
 	CONVERGENCE TOL:         1.000e-05
 	MAXIMUM ITERATIONS:      200
 	SETUP TIME:              0.2 SEC
 	APPLY TIME:              0.0 SEC
 
    NUMBER OF MATRIX-VECTOR MULTIPLICATIONS: 65
 
 ITERATIVE SOLVER CONVERGED.
 NUM. ITERATIONS =    6 RELATIVE RESIDUAL NORM =  4.309e-06 RHS NORM =  2.549e-02

               CONVERGENCE CHECKS FOR EQUILIBRIUM ITERATION     1


 AVERAGE FORCE                      4.258E-05   TIME AVG. FORCE       2.365E-05
 LARGEST SCALED RESIDUAL FORCE      1.501E-06   AT NODE       1596   DOF  1
   INSTANCE: PART-1-1                                                                        
  CORRESPONDING RESIDUAL FORCE      1.501E-06
 LARGEST INCREMENT OF DISP.         3.207E-06   AT NODE        282   DOF  2
   INSTANCE: PART-1-1                                                                        
 LARGEST CORRECTION TO DISP.        3.207E-06   AT NODE        282   DOF  2
   INSTANCE: PART-1-1                                                                        
          FORCE     EQUILIBRIUM NOT ACHIEVED WITHIN TOLERANCE.
 
	SYMMETRIC ITERATIVE SOLVER RUNNING ON
 	1 HOST:        16 MPI RANKS x 1 THREAD
 	NUMBER OF EQUATIONS:     4002
 	NUMBER OF RHS:           1
 	KRYLOV METHOD:           CG
 	PRECONDITIONER:          PAMG
 	CONVERGENCE TOL:         1.000e-05
 	MAXIMUM ITERATIONS:      200
 	SETUP TIME:              0.2 SEC
 	APPLY TIME:              0.0 SEC
 
    NUMBER OF MATRIX-VECTOR MULTIPLICATIONS: 65
 
 ITERATIVE SOLVER CONVERGED.
 NUM. ITERATIONS =    6 RELATIVE RESIDUAL NORM =  3.122e-06 RHS NORM =  2.040e-06

               CONVERGENCE CHECKS FOR EQUILIBRIUM ITERATION     2


 AVERAGE FORCE                      4.258E-05   TIME AVG. FORCE       2.365E-05
 LARGEST SCALED RESIDUAL FORCE      8.750E-12   AT NODE       1717   DOF  3
   INSTANCE: PART-1-1                                                                        
  CORRESPONDING RESIDUAL FORCE      8.750E-12
 LARGEST INCREMENT OF DISP.         3.207E-06   AT NODE        282   DOF  2
   INSTANCE: PART-1-1                                                                        
 LARGEST CORRECTION TO DISP.       -2.592E-10   AT NODE          1   DOF  3
   INSTANCE: PART-1-1                                                                        
          THE FORCE     EQUILIBRIUM EQUATIONS HAVE CONVERGED
          TIME INCREMENT MAY NOW INCREASE TO    0.225    
          TIME INCREMENT REDUCED TO   0.100     TO MEET NEXT OUTPUT TIME POINT

 ITERATION SUMMARY FOR THE INCREMENT:   2 TOTAL ITERATIONS, OF WHICH
   0 ARE SEVERE DISCONTINUITY ITERATIONS AND  2 ARE EQUILIBRIUM ITERATIONS.

 TIME INCREMENT COMPLETED  0.100    ,  FRACTION OF STEP COMPLETED  1.091E-02
 STEP TIME COMPLETED       0.600    ,  TOTAL TIME COMPLETED        0.600    


  INCREMENT     7 STARTS. ATTEMPT NUMBER  1, TIME INCREMENT  0.100    
 
	SYMMETRIC ITERATIVE SOLVER RUNNING ON
 	1 HOST:        16 MPI RANKS x 1 THREAD
 	NUMBER OF EQUATIONS:     4002
 	NUMBER OF RHS:           1
 	KRYLOV METHOD:           CG
 	PRECONDITIONER:          PAMG
 	CONVERGENCE TOL:         1.000e-05
 	MAXIMUM ITERATIONS:      200
 	SETUP TIME:              0.1 SEC
 	APPLY TIME:              0.0 SEC
 
    NUMBER OF MATRIX-VECTOR MULTIPLICATIONS: 65
 
 ITERATIVE SOLVER CONVERGED.
 NUM. ITERATIONS =    6 RELATIVE RESIDUAL NORM =  5.883e-06 RHS NORM =  5.833e-07

               CONVERGENCE CHECKS FOR EQUILIBRIUM ITERATION     1


 AVERAGE FORCE                      5.679E-05   TIME AVG. FORCE       2.839E-05
 LARGEST SCALED RESIDUAL FORCE      2.409E-11   AT NODE       1717   DOF  3
   INSTANCE: PART-1-1                                                                        
  CORRESPONDING RESIDUAL FORCE      2.409E-11
 LARGEST INCREMENT OF DISP.         3.207E-06   AT NODE        282   DOF  2
   INSTANCE: PART-1-1                                                                        
 LARGEST CORRECTION TO DISP.       -1.077E-10   AT NODE       1570   DOF  3
   INSTANCE: PART-1-1                                                                        
          THE FORCE     EQUILIBRIUM EQUATIONS HAVE CONVERGED
          TIME INCREMENT MAY NOW INCREASE TO    0.225    
          TIME INCREMENT REDUCED TO   0.100     TO MEET NEXT OUTPUT TIME POINT

 ITERATION SUMMARY FOR THE INCREMENT:   1 TOTAL ITERATIONS, OF WHICH
   0 ARE SEVERE DISCONTINUITY ITERATIONS AND  1 ARE EQUILIBRIUM ITERATIONS.

 TIME INCREMENT COMPLETED  0.100    ,  FRACTION OF STEP COMPLETED  1.273E-02
 STEP TIME COMPLETED       0.700    ,  TOTAL TIME COMPLETED        0.700    


  INCREMENT     8 STARTS. ATTEMPT NUMBER  1, TIME INCREMENT  0.100    
 
	SYMMETRIC ITERATIVE SOLVER RUNNING ON
 	1 HOST:        16 MPI RANKS x 1 THREAD
 	NUMBER OF EQUATIONS:     4002
 	NUMBER OF RHS:           1
 	KRYLOV METHOD:           CG
 	PRECONDITIONER:          PAMG
 	CONVERGENCE TOL:         1.000e-05
 	MAXIMUM ITERATIONS:      200
 	SETUP TIME:              0.2 SEC
 	APPLY TIME:              0.0 SEC
 
    NUMBER OF MATRIX-VECTOR MULTIPLICATIONS: 65
 
 ITERATIVE SOLVER CONVERGED.
 NUM. ITERATIONS =    6 RELATIVE RESIDUAL NORM =  4.309e-06 RHS NORM =  2.550e-02

               CONVERGENCE CHECKS FOR EQUILIBRIUM ITERATION     1


 AVERAGE FORCE                      5.679E-05   TIME AVG. FORCE       3.194E-05
 LARGEST SCALED RESIDUAL FORCE     -3.213E-06   AT NODE       1596   DOF  1
   INSTANCE: PART-1-1                                                                        
  CORRESPONDING RESIDUAL FORCE     -3.213E-06
 LARGEST INCREMENT OF DISP.        -5.933E-10   AT NODE         23   DOF  3
   INSTANCE: PART-1-1                                                                        
 LARGEST CORRECTION TO DISP.       -3.207E-06   AT NODE        282   DOF  2
   INSTANCE: PART-1-1                                                                        
          FORCE     EQUILIBRIUM NOT ACHIEVED WITHIN TOLERANCE.
 
	SYMMETRIC ITERATIVE SOLVER RUNNING ON
 	1 HOST:        16 MPI RANKS x 1 THREAD
 	NUMBER OF EQUATIONS:     4002
 	NUMBER OF RHS:           1
 	KRYLOV METHOD:           CG
 	PRECONDITIONER:          PAMG
 	CONVERGENCE TOL:         1.000e-05
 	MAXIMUM ITERATIONS:      200
 	SETUP TIME:              0.2 SEC
 	APPLY TIME:              0.0 SEC
 
    NUMBER OF MATRIX-VECTOR MULTIPLICATIONS: 65
 
 ITERATIVE SOLVER CONVERGED.
 NUM. ITERATIONS =    6 RELATIVE RESIDUAL NORM =  2.453e-06 RHS NORM =  4.504e-06

               CONVERGENCE CHECKS FOR EQUILIBRIUM ITERATION     2


 AVERAGE FORCE                      5.679E-05   TIME AVG. FORCE       3.194E-05
 LARGEST SCALED RESIDUAL FORCE      9.608E-11   AT NODE       1717   DOF  1
   INSTANCE: PART-1-1                                                                        
  CORRESPONDING RESIDUAL FORCE      9.608E-11
 LARGEST INCREMENT OF DISP.        -5.272E-14   AT NODE        631   DOF  1
   INSTANCE: PART-1-1                                                                        
 LARGEST CORRECTION TO DISP.        5.933E-10   AT NODE         23   DOF  3
   INSTANCE: PART-1-1                                                                        
          FORCE     EQUILIB. ACCEPTED BASED ON SMALL RESIDUAL AND SMALL MAGNITUDE
           OF THE INCREMENT OF DISPLACEMENT
          TIME INCREMENT MAY NOW INCREASE TO    0.225    
          TIME INCREMENT REDUCED TO   0.100     TO MEET NEXT OUTPUT TIME POINT

 ITERATION SUMMARY FOR THE INCREMENT:   2 TOTAL ITERATIONS, OF WHICH
   0 ARE SEVERE DISCONTINUITY ITERATIONS AND  2 ARE EQUILIBRIUM ITERATIONS.

 TIME INCREMENT COMPLETED  0.100    ,  FRACTION OF STEP COMPLETED  1.455E-02
 STEP TIME COMPLETED       0.800    ,  TOTAL TIME COMPLETED        0.800    


  INCREMENT     9 STARTS. ATTEMPT NUMBER  1, TIME INCREMENT  0.100    
 
	SYMMETRIC ITERATIVE SOLVER RUNNING ON
 	1 HOST:        16 MPI RANKS x 1 THREAD
 	NUMBER OF EQUATIONS:     4002
 	NUMBER OF RHS:           1
 	KRYLOV METHOD:           CG
 	PRECONDITIONER:          PAMG
 	CONVERGENCE TOL:         1.000e-05
 	MAXIMUM ITERATIONS:      200
 	SETUP TIME:              0.2 SEC
 	APPLY TIME:              0.0 SEC
 
    NUMBER OF MATRIX-VECTOR MULTIPLICATIONS: 65
 
 ITERATIVE SOLVER CONVERGED.
 NUM. ITERATIONS =    6 RELATIVE RESIDUAL NORM =  4.309e-06 RHS NORM =  2.546e-02

               CONVERGENCE CHECKS FOR EQUILIBRIUM ITERATION     1


 AVERAGE FORCE                      7.098E-05   TIME AVG. FORCE       3.627E-05
 LARGEST SCALED RESIDUAL FORCE      3.070E-06   AT NODE       1596   DOF  1
   INSTANCE: PART-1-1                                                                        
  CORRESPONDING RESIDUAL FORCE      3.070E-06
 LARGEST INCREMENT OF DISP.         3.203E-06   AT NODE        282   DOF  2
   INSTANCE: PART-1-1                                                                        
 LARGEST CORRECTION TO DISP.        3.203E-06   AT NODE        282   DOF  2
   INSTANCE: PART-1-1                                                                        
          FORCE     EQUILIBRIUM NOT ACHIEVED WITHIN TOLERANCE.
 
	SYMMETRIC ITERATIVE SOLVER RUNNING ON
 	1 HOST:        16 MPI RANKS x 1 THREAD
 	NUMBER OF EQUATIONS:     4002
 	NUMBER OF RHS:           1
 	KRYLOV METHOD:           CG
 	PRECONDITIONER:          PAMG
 	CONVERGENCE TOL:         1.000e-05
 	MAXIMUM ITERATIONS:      200
 	SETUP TIME:              0.2 SEC
 	APPLY TIME:              0.0 SEC
 
    NUMBER OF MATRIX-VECTOR MULTIPLICATIONS: 65
 
 ITERATIVE SOLVER CONVERGED.
 NUM. ITERATIONS =    6 RELATIVE RESIDUAL NORM =  2.515e-06 RHS NORM =  4.217e-06

               CONVERGENCE CHECKS FOR EQUILIBRIUM ITERATION     2


 AVERAGE FORCE                      7.098E-05   TIME AVG. FORCE       3.627E-05
 LARGEST SCALED RESIDUAL FORCE     -4.680E-11   AT NODE       1717   DOF  1
   INSTANCE: PART-1-1                                                                        
  CORRESPONDING RESIDUAL FORCE     -4.680E-11
 LARGEST INCREMENT OF DISP.         3.203E-06   AT NODE        282   DOF  2
   INSTANCE: PART-1-1                                                                        
 LARGEST CORRECTION TO DISP.       -5.382E-10   AT NODE         23   DOF  3
   INSTANCE: PART-1-1                                                                        
          THE FORCE     EQUILIBRIUM EQUATIONS HAVE CONVERGED
          TIME INCREMENT MAY NOW INCREASE TO    0.225    
          TIME INCREMENT REDUCED TO   0.100     TO MEET NEXT OUTPUT TIME POINT

 ITERATION SUMMARY FOR THE INCREMENT:   2 TOTAL ITERATIONS, OF WHICH
   0 ARE SEVERE DISCONTINUITY ITERATIONS AND  2 ARE EQUILIBRIUM ITERATIONS.

 TIME INCREMENT COMPLETED  0.100    ,  FRACTION OF STEP COMPLETED  1.636E-02
 STEP TIME COMPLETED       0.900    ,  TOTAL TIME COMPLETED        0.900    


  INCREMENT    10 STARTS. ATTEMPT NUMBER  1, TIME INCREMENT  0.100    
 
	SYMMETRIC ITERATIVE SOLVER RUNNING ON
 	1 HOST:        16 MPI RANKS x 1 THREAD
 	NUMBER OF EQUATIONS:     4002
 	NUMBER OF RHS:           1
 	KRYLOV METHOD:           CG
 	PRECONDITIONER:          PAMG
 	CONVERGENCE TOL:         1.000e-05
 	MAXIMUM ITERATIONS:      200
 	SETUP TIME:              0.2 SEC
 	APPLY TIME:              0.0 SEC
 
    NUMBER OF MATRIX-VECTOR MULTIPLICATIONS: 65
 
 ITERATIVE SOLVER CONVERGED.
 NUM. ITERATIONS =    6 RELATIVE RESIDUAL NORM =  4.333e-06 RHS NORM =  3.820e-05

               CONVERGENCE CHECKS FOR EQUILIBRIUM ITERATION     1


 AVERAGE FORCE                      8.520E-05   TIME AVG. FORCE       4.117E-05
 LARGEST SCALED RESIDUAL FORCE      5.873E-09   AT NODE       1596   DOF  1
   INSTANCE: PART-1-1                                                                        
  CORRESPONDING RESIDUAL FORCE      5.873E-09
 LARGEST INCREMENT OF DISP.         3.207E-06   AT NODE        282   DOF  2
   INSTANCE: PART-1-1                                                                        
 LARGEST CORRECTION TO DISP.        4.773E-09   AT NODE        282   DOF  2
   INSTANCE: PART-1-1                                                                        
          THE FORCE     EQUILIBRIUM EQUATIONS HAVE CONVERGED
          TIME INCREMENT MAY NOW INCREASE TO    0.225    
          TIME INCREMENT REDUCED TO   0.100     TO MEET NEXT OUTPUT TIME POINT

 ITERATION SUMMARY FOR THE INCREMENT:   1 TOTAL ITERATIONS, OF WHICH
   0 ARE SEVERE DISCONTINUITY ITERATIONS AND  1 ARE EQUILIBRIUM ITERATIONS.

 TIME INCREMENT COMPLETED  0.100    ,  FRACTION OF STEP COMPLETED  1.818E-02
 STEP TIME COMPLETED        1.00    ,  TOTAL TIME COMPLETED         1.00    


  INCREMENT    11 STARTS. ATTEMPT NUMBER  1, TIME INCREMENT  0.100    
 
	SYMMETRIC ITERATIVE SOLVER RUNNING ON
 	1 HOST:        16 MPI RANKS x 1 THREAD
 	NUMBER OF EQUATIONS:     4002
 	NUMBER OF RHS:           1
 	KRYLOV METHOD:           CG
 	PRECONDITIONER:          PAMG
 	CONVERGENCE TOL:         1.000e-05
 	MAXIMUM ITERATIONS:      200
 	SETUP TIME:              0.1 SEC
 	APPLY TIME:              0.0 SEC
 
    NUMBER OF MATRIX-VECTOR MULTIPLICATIONS: 65
 
 ITERATIVE SOLVER CONVERGED.
 NUM. ITERATIONS =    6 RELATIVE RESIDUAL NORM =  5.293e-06 RHS NORM =  1.886e-05

               CONVERGENCE CHECKS FOR EQUILIBRIUM ITERATION     1


 AVERAGE FORCE                      9.941E-05   TIME AVG. FORCE       4.646E-05
 LARGEST SCALED RESIDUAL FORCE     -6.693E-08   AT NODE        761   DOF  2
   INSTANCE: PART-1-1                                                                        
  CORRESPONDING RESIDUAL FORCE     -6.693E-08
 LARGEST INCREMENT OF DISP.         3.207E-06   AT NODE        282   DOF  2
   INSTANCE: PART-1-1                                                                        
 LARGEST CORRECTION TO DISP.        1.220E-08   AT NODE        629   DOF  2
   INSTANCE: PART-1-1                                                                        
          THE FORCE     EQUILIBRIUM EQUATIONS HAVE CONVERGED
          TIME INCREMENT MAY NOW INCREASE TO    0.225    
          TIME INCREMENT REDUCED TO   0.100     TO MEET NEXT OUTPUT TIME POINT

 ITERATION SUMMARY FOR THE INCREMENT:   1 TOTAL ITERATIONS, OF WHICH
   0 ARE SEVERE DISCONTINUITY ITERATIONS AND  1 ARE EQUILIBRIUM ITERATIONS.

 TIME INCREMENT COMPLETED  0.100    ,  FRACTION OF STEP COMPLETED  2.000E-02
 STEP TIME COMPLETED        1.10    ,  TOTAL TIME COMPLETED         1.10    


  INCREMENT    12 STARTS. ATTEMPT NUMBER  1, TIME INCREMENT  0.100    
 
	SYMMETRIC ITERATIVE SOLVER RUNNING ON
 	1 HOST:        16 MPI RANKS x 1 THREAD
 	NUMBER OF EQUATIONS:     4002
 	NUMBER OF RHS:           1
 	KRYLOV METHOD:           CG
 	PRECONDITIONER:          PAMG
 	CONVERGENCE TOL:         1.000e-05
 	MAXIMUM ITERATIONS:      200
 	SETUP TIME:              0.2 SEC
 	APPLY TIME:              0.0 SEC
 
    NUMBER OF MATRIX-VECTOR MULTIPLICATIONS: 65
 
 ITERATIVE SOLVER CONVERGED.
 NUM. ITERATIONS =    6 RELATIVE RESIDUAL NORM =  8.468e-06 RHS NORM =  1.374e-04

               CONVERGENCE CHECKS FOR EQUILIBRIUM ITERATION     1


 AVERAGE FORCE                      1.135E-04   TIME AVG. FORCE       5.205E-05
 LARGEST SCALED RESIDUAL FORCE     -3.640E-07   AT NODE       1427   DOF  2
   INSTANCE: PART-1-1                                                                        
  CORRESPONDING RESIDUAL FORCE     -3.640E-07
 LARGEST INCREMENT OF DISP.         3.207E-06   AT NODE        282   DOF  2
   INSTANCE: PART-1-1                                                                        
 LARGEST CORRECTION TO DISP.       -4.570E-08   AT NODE        761   DOF  2
   INSTANCE: PART-1-1                                                                        
          FORCE     EQUILIBRIUM NOT ACHIEVED WITHIN TOLERANCE.
 
	SYMMETRIC ITERATIVE SOLVER RUNNING ON
 	1 HOST:        16 MPI RANKS x 1 THREAD
 	NUMBER OF EQUATIONS:     4002
 	NUMBER OF RHS:           1
 	KRYLOV METHOD:           CG
 	PRECONDITIONER:          PAMG
 	CONVERGENCE TOL:         1.000e-05
 	MAXIMUM ITERATIONS:      200
 	SETUP TIME:              0.1 SEC
 	APPLY TIME:              0.0 SEC
 
    NUMBER OF MATRIX-VECTOR MULTIPLICATIONS: 65
 
 ITERATIVE SOLVER CONVERGED.
 NUM. ITERATIONS =    6 RELATIVE RESIDUAL NORM =  8.511e-06 RHS NORM =  1.649e-06

               CONVERGENCE CHECKS FOR EQUILIBRIUM ITERATION     2


 AVERAGE FORCE                      1.135E-04   TIME AVG. FORCE       5.205E-05
 LARGEST SCALED RESIDUAL FORCE      3.336E-10   AT NODE       1714   DOF  3
   INSTANCE: PART-1-1                                                                        
  CORRESPONDING RESIDUAL FORCE      3.336E-10
 LARGEST INCREMENT OF DISP.         3.207E-06   AT NODE        282   DOF  2
   INSTANCE: PART-1-1                                                                        
 LARGEST CORRECTION TO DISP.       -6.926E-10   AT NODE       1427   DOF  2
   INSTANCE: PART-1-1                                                                        
          THE FORCE     EQUILIBRIUM EQUATIONS HAVE CONVERGED
          TIME INCREMENT MAY NOW INCREASE TO    0.225    
          TIME INCREMENT REDUCED TO   0.100     TO MEET NEXT OUTPUT TIME POINT

 ITERATION SUMMARY FOR THE INCREMENT:   2 TOTAL ITERATIONS, OF WHICH
   0 ARE SEVERE DISCONTINUITY ITERATIONS AND  2 ARE EQUILIBRIUM ITERATIONS.

 TIME INCREMENT COMPLETED  0.100    ,  FRACTION OF STEP COMPLETED  2.182E-02
 STEP TIME COMPLETED        1.20    ,  TOTAL TIME COMPLETED         1.20    


  INCREMENT    13 STARTS. ATTEMPT NUMBER  1, TIME INCREMENT  0.100    
 
	SYMMETRIC ITERATIVE SOLVER RUNNING ON
 	1 HOST:        16 MPI RANKS x 1 THREAD
 	NUMBER OF EQUATIONS:     4002
 	NUMBER OF RHS:           1
 	KRYLOV METHOD:           CG
 	PRECONDITIONER:          PAMG
 	CONVERGENCE TOL:         1.000e-05
 	MAXIMUM ITERATIONS:      200
 	SETUP TIME:              0.2 SEC
 	APPLY TIME:              0.0 SEC
 
    NUMBER OF MATRIX-VECTOR MULTIPLICATIONS: 65
 
 ITERATIVE SOLVER CONVERGED.
 NUM. ITERATIONS =    6 RELATIVE RESIDUAL NORM =  4.562e-06 RHS NORM =  2.502e-02
 

 ***NOTE: USER SUBROUTINE REQUESTS A TIME INCREMENT CHANGE.


  INCREMENT    13 STARTS. ATTEMPT NUMBER  2, TIME INCREMENT  5.000E-02
 
	SYMMETRIC ITERATIVE SOLVER RUNNING ON
 	1 HOST:        16 MPI RANKS x 1 THREAD
 	NUMBER OF EQUATIONS:     4002
 	NUMBER OF RHS:           1
 	KRYLOV METHOD:           CG
 	PRECONDITIONER:          PAMG
 	CONVERGENCE TOL:         1.000e-05
 	MAXIMUM ITERATIONS:      200
 	SETUP TIME:              0.1 SEC
 	APPLY TIME:              0.0 SEC
 
    NUMBER OF MATRIX-VECTOR MULTIPLICATIONS: 65
 
 ITERATIVE SOLVER CONVERGED.
 NUM. ITERATIONS =    6 RELATIVE RESIDUAL NORM =  4.500e-06 RHS NORM =  1.269e-02

               CONVERGENCE CHECKS FOR EQUILIBRIUM ITERATION     1


 AVERAGE FORCE                      1.274E-04   TIME AVG. FORCE       5.785E-05
 LARGEST SCALED RESIDUAL FORCE      3.628E-05   AT NODE          1   DOF  3
   INSTANCE: PART-1-1                                                                        
  CORRESPONDING RESIDUAL FORCE      3.628E-05
 LARGEST INCREMENT OF DISP.         3.227E-06   AT NODE       1722   DOF  2
   INSTANCE: PART-1-1                                                                        
 LARGEST CORRECTION TO DISP.        1.628E-06   AT NODE        279   DOF  2
   INSTANCE: PART-1-1                                                                        
          FORCE     EQUILIBRIUM NOT ACHIEVED WITHIN TOLERANCE.
 
	SYMMETRIC ITERATIVE SOLVER RUNNING ON
 	1 HOST:        16 MPI RANKS x 1 THREAD
 	NUMBER OF EQUATIONS:     4002
 	NUMBER OF RHS:           1
 	KRYLOV METHOD:           CG
 	PRECONDITIONER:          PAMG
 	CONVERGENCE TOL:         1.000e-05
 	MAXIMUM ITERATIONS:      200
 	SETUP TIME:              0.2 SEC
 	APPLY TIME:              0.0 SEC
 
    NUMBER OF MATRIX-VECTOR MULTIPLICATIONS: 65
 
 ITERATIVE SOLVER CONVERGED.
 NUM. ITERATIONS =    6 RELATIVE RESIDUAL NORM =  8.164e-06 RHS NORM =  7.917e-05

               CONVERGENCE CHECKS FOR EQUILIBRIUM ITERATION     2


 AVERAGE FORCE                      1.274E-04   TIME AVG. FORCE       5.785E-05
 LARGEST SCALED RESIDUAL FORCE      1.755E-07   AT NODE          1   DOF  3
   INSTANCE: PART-1-1                                                                        
  CORRESPONDING RESIDUAL FORCE      1.755E-07
 LARGEST INCREMENT OF DISP.         3.230E-06   AT NODE       1722   DOF  2
   INSTANCE: PART-1-1                                                                        
 LARGEST CORRECTION TO DISP.       -2.617E-08   AT NODE       1558   DOF  2
   INSTANCE: PART-1-1                                                                        
          THE FORCE     EQUILIBRIUM EQUATIONS HAVE CONVERGED
          TIME INCREMENT MAY NOW INCREASE TO    7.500E-02
          TIME INCREMENT REDUCED TO   5.000E-02 TO MEET NEXT OUTPUT TIME POINT

 ITERATION SUMMARY FOR THE INCREMENT:   2 TOTAL ITERATIONS, OF WHICH
   0 ARE SEVERE DISCONTINUITY ITERATIONS AND  2 ARE EQUILIBRIUM ITERATIONS.

 TIME INCREMENT COMPLETED  5.000E-02,  FRACTION OF STEP COMPLETED  2.273E-02
 STEP TIME COMPLETED        1.25    ,  TOTAL TIME COMPLETED         1.25    


  INCREMENT    14 STARTS. ATTEMPT NUMBER  1, TIME INCREMENT  5.000E-02
 
	SYMMETRIC ITERATIVE SOLVER RUNNING ON
 	1 HOST:        16 MPI RANKS x 1 THREAD
 	NUMBER OF EQUATIONS:     4002
 	NUMBER OF RHS:           1
 	KRYLOV METHOD:           CG
 	PRECONDITIONER:          PAMG
 	CONVERGENCE TOL:         1.000e-05
 	MAXIMUM ITERATIONS:      200
 	SETUP TIME:              0.2 SEC
 	APPLY TIME:              0.0 SEC
 
    NUMBER OF MATRIX-VECTOR MULTIPLICATIONS: 65
 
 ITERATIVE SOLVER CONVERGED.
 NUM. ITERATIONS =    6 RELATIVE RESIDUAL NORM =  5.590e-06 RHS NORM =  6.837e-04

               CONVERGENCE CHECKS FOR EQUILIBRIUM ITERATION     1


 AVERAGE FORCE                      1.403E-04   TIME AVG. FORCE       6.374E-05
 LARGEST SCALED RESIDUAL FORCE      6.542E-06   AT NODE          1   DOF  3
   INSTANCE: PART-1-1                                                                        
  CORRESPONDING RESIDUAL FORCE      6.542E-06
 LARGEST INCREMENT OF DISP.         3.295E-06   AT NODE        279   DOF  2
   INSTANCE: PART-1-1                                                                        
 LARGEST CORRECTION TO DISP.        1.676E-07   AT NODE        100   DOF  3
   INSTANCE: PART-1-1                                                                        
          FORCE     EQUILIBRIUM NOT ACHIEVED WITHIN TOLERANCE.
 
	SYMMETRIC ITERATIVE SOLVER RUNNING ON
 	1 HOST:        16 MPI RANKS x 1 THREAD
 	NUMBER OF EQUATIONS:     4002
 	NUMBER OF RHS:           1
 	KRYLOV METHOD:           CG
 	PRECONDITIONER:          PAMG
 	CONVERGENCE TOL:         1.000e-05
 	MAXIMUM ITERATIONS:      200
 	SETUP TIME:              0.2 SEC
 	APPLY TIME:              0.0 SEC
 
    NUMBER OF MATRIX-VECTOR MULTIPLICATIONS: 65
 
 ITERATIVE SOLVER CONVERGED.
 NUM. ITERATIONS =    6 RELATIVE RESIDUAL NORM =  6.661e-06 RHS NORM =  1.548e-05

               CONVERGENCE CHECKS FOR EQUILIBRIUM ITERATION     2


 AVERAGE FORCE                      1.403E-04   TIME AVG. FORCE       6.374E-05
 LARGEST SCALED RESIDUAL FORCE     -1.913E-08   AT NODE       1717   DOF  1
   INSTANCE: PART-1-1                                                                        
  CORRESPONDING RESIDUAL FORCE     -1.913E-08
 LARGEST INCREMENT OF DISP.         3.296E-06   AT NODE        279   DOF  2
   INSTANCE: PART-1-1                                                                        
 LARGEST CORRECTION TO DISP.        4.019E-09   AT NODE        124   DOF  3
   INSTANCE: PART-1-1                                                                        
          THE FORCE     EQUILIBRIUM EQUATIONS HAVE CONVERGED
          TIME INCREMENT MAY NOW INCREASE TO    0.100    

 ITERATION SUMMARY FOR THE INCREMENT:   2 TOTAL ITERATIONS, OF WHICH
   0 ARE SEVERE DISCONTINUITY ITERATIONS AND  2 ARE EQUILIBRIUM ITERATIONS.

 TIME INCREMENT COMPLETED  5.000E-02,  FRACTION OF STEP COMPLETED  2.364E-02
 STEP TIME COMPLETED        1.30    ,  TOTAL TIME COMPLETED         1.30    


  INCREMENT    15 STARTS. ATTEMPT NUMBER  1, TIME INCREMENT  0.100    
 
	SYMMETRIC ITERATIVE SOLVER RUNNING ON
 	1 HOST:        16 MPI RANKS x 1 THREAD
 	NUMBER OF EQUATIONS:     4002
 	NUMBER OF RHS:           1
 	KRYLOV METHOD:           CG
 	PRECONDITIONER:          PAMG
 	CONVERGENCE TOL:         1.000e-05
 	MAXIMUM ITERATIONS:      200
 	SETUP TIME:              0.2 SEC
 	APPLY TIME:              0.0 SEC
 
    NUMBER OF MATRIX-VECTOR MULTIPLICATIONS: 65
 
 ITERATIVE SOLVER CONVERGED.
 NUM. ITERATIONS =    6 RELATIVE RESIDUAL NORM =  5.089e-06 RHS NORM =  1.948e-02

               CONVERGENCE CHECKS FOR EQUILIBRIUM ITERATION     1


 AVERAGE FORCE                      1.510E-04   TIME AVG. FORCE       6.955E-05
 LARGEST SCALED RESIDUAL FORCE     -3.881E-04   AT NODE       1596   DOF  1
   INSTANCE: PART-1-1                                                                        
  CORRESPONDING RESIDUAL FORCE     -3.881E-04
 LARGEST INCREMENT OF DISP.         3.364E-06   AT NODE        279   DOF  2
   INSTANCE: PART-1-1                                                                        
 LARGEST CORRECTION TO DISP.       -3.229E-06   AT NODE        279   DOF  2
   INSTANCE: PART-1-1                                                                        
          FORCE     EQUILIBRIUM NOT ACHIEVED WITHIN TOLERANCE.
 
	SYMMETRIC ITERATIVE SOLVER RUNNING ON
 	1 HOST:        16 MPI RANKS x 1 THREAD
 	NUMBER OF EQUATIONS:     4002
 	NUMBER OF RHS:           1
 	KRYLOV METHOD:           CG
 	PRECONDITIONER:          PAMG
 	CONVERGENCE TOL:         1.000e-05
 	MAXIMUM ITERATIONS:      200
 	SETUP TIME:              0.2 SEC
 	APPLY TIME:              0.0 SEC
 
    NUMBER OF MATRIX-VECTOR MULTIPLICATIONS: 65
 
 ITERATIVE SOLVER CONVERGED.
 NUM. ITERATIONS =    6 RELATIVE RESIDUAL NORM =  4.843e-06 RHS NORM =  5.995e-04

               CONVERGENCE CHECKS FOR EQUILIBRIUM ITERATION     2


 AVERAGE FORCE                      1.510E-04   TIME AVG. FORCE       6.955E-05
 LARGEST SCALED RESIDUAL FORCE      1.946E-06   AT NODE          1   DOF  3
   INSTANCE: PART-1-1                                                                        
  CORRESPONDING RESIDUAL FORCE      1.946E-06
 LARGEST INCREMENT OF DISP.         3.350E-06   AT NODE        279   DOF  2
   INSTANCE: PART-1-1                                                                        
 LARGEST CORRECTION TO DISP.        9.465E-08   AT NODE         98   DOF  3
   INSTANCE: PART-1-1                                                                        
          FORCE     EQUILIBRIUM NOT ACHIEVED WITHIN TOLERANCE.
 
	SYMMETRIC ITERATIVE SOLVER RUNNING ON
 	1 HOST:        16 MPI RANKS x 1 THREAD
 	NUMBER OF EQUATIONS:     4002
 	NUMBER OF RHS:           1
 	KRYLOV METHOD:           CG
 	PRECONDITIONER:          PAMG
 	CONVERGENCE TOL:         1.000e-05
 	MAXIMUM ITERATIONS:      200
 	SETUP TIME:              0.2 SEC
 	APPLY TIME:              0.0 SEC
 
    NUMBER OF MATRIX-VECTOR MULTIPLICATIONS: 65
 
 ITERATIVE SOLVER CONVERGED.
 NUM. ITERATIONS =    6 RELATIVE RESIDUAL NORM =  7.818e-06 RHS NORM =  4.256e-06

               CONVERGENCE CHECKS FOR EQUILIBRIUM ITERATION     3


 AVERAGE FORCE                      1.510E-04   TIME AVG. FORCE       6.955E-05
 LARGEST SCALED RESIDUAL FORCE     -2.822E-09   AT NODE       1717   DOF  3
   INSTANCE: PART-1-1                                                                        
  CORRESPONDING RESIDUAL FORCE     -2.822E-09
 LARGEST INCREMENT OF DISP.         3.350E-06   AT NODE        279   DOF  2
   INSTANCE: PART-1-1                                                                        
 LARGEST CORRECTION TO DISP.        1.299E-09   AT NODE        773   DOF  3
   INSTANCE: PART-1-1                                                                        
          THE FORCE     EQUILIBRIUM EQUATIONS HAVE CONVERGED
          TIME INCREMENT MAY NOW INCREASE TO    0.150    
          TIME INCREMENT REDUCED TO   0.100     TO MEET NEXT OUTPUT TIME POINT

 ITERATION SUMMARY FOR THE INCREMENT:   3 TOTAL ITERATIONS, OF WHICH
   0 ARE SEVERE DISCONTINUITY ITERATIONS AND  3 ARE EQUILIBRIUM ITERATIONS.

 TIME INCREMENT COMPLETED  0.100    ,  FRACTION OF STEP COMPLETED  2.545E-02
 STEP TIME COMPLETED        1.40    ,  TOTAL TIME COMPLETED         1.40    


  INCREMENT    16 STARTS. ATTEMPT NUMBER  1, TIME INCREMENT  0.100    
 
	SYMMETRIC ITERATIVE SOLVER RUNNING ON
 	1 HOST:        16 MPI RANKS x 1 THREAD
 	NUMBER OF EQUATIONS:     4002
 	NUMBER OF RHS:           1
 	KRYLOV METHOD:           CG
 	PRECONDITIONER:          PAMG
 	CONVERGENCE TOL:         1.000e-05
 	MAXIMUM ITERATIONS:      200
 	SETUP TIME:              0.1 SEC
 	APPLY TIME:              0.0 SEC
 
    NUMBER OF MATRIX-VECTOR MULTIPLICATIONS: 65
 
 ITERATIVE SOLVER CONVERGED.
 NUM. ITERATIONS =    6 RELATIVE RESIDUAL NORM =  5.924e-06 RHS NORM =  2.068e-02
 

 ***NOTE: USER SUBROUTINE REQUESTS A TIME INCREMENT CHANGE.


  INCREMENT    16 STARTS. ATTEMPT NUMBER  2, TIME INCREMENT  5.000E-02
 
	SYMMETRIC ITERATIVE SOLVER RUNNING ON
 	1 HOST:        16 MPI RANKS x 1 THREAD
 	NUMBER OF EQUATIONS:     4002
 	NUMBER OF RHS:           1
 	KRYLOV METHOD:           CG
 	PRECONDITIONER:          PAMG
 	CONVERGENCE TOL:         1.000e-05
 	MAXIMUM ITERATIONS:      200
 	SETUP TIME:              0.2 SEC
 	APPLY TIME:              0.0 SEC
 
    NUMBER OF MATRIX-VECTOR MULTIPLICATIONS: 65
 
 ITERATIVE SOLVER CONVERGED.
 NUM. ITERATIONS =    6 RELATIVE RESIDUAL NORM =  4.777e-06 RHS NORM =  1.087e-02

               CONVERGENCE CHECKS FOR EQUILIBRIUM ITERATION     1


 AVERAGE FORCE                      1.606E-04   TIME AVG. FORCE       7.524E-05
 LARGEST SCALED RESIDUAL FORCE     -1.522E-04   AT NODE       1596   DOF  1
   INSTANCE: PART-1-1                                                                        
  CORRESPONDING RESIDUAL FORCE     -1.522E-04
 LARGEST INCREMENT OF DISP.         3.346E-06   AT NODE       1722   DOF  2
   INSTANCE: PART-1-1                                                                        
 LARGEST CORRECTION TO DISP.        1.697E-06   AT NODE       1722   DOF  2
   INSTANCE: PART-1-1                                                                        
          FORCE     EQUILIBRIUM NOT ACHIEVED WITHIN TOLERANCE.
 
	SYMMETRIC ITERATIVE SOLVER RUNNING ON
 	1 HOST:        16 MPI RANKS x 1 THREAD
 	NUMBER OF EQUATIONS:     4002
 	NUMBER OF RHS:           1
 	KRYLOV METHOD:           CG
 	PRECONDITIONER:          PAMG
 	CONVERGENCE TOL:         1.000e-05
 	MAXIMUM ITERATIONS:      200
 	SETUP TIME:              0.2 SEC
 	APPLY TIME:              0.0 SEC
 
    NUMBER OF MATRIX-VECTOR MULTIPLICATIONS: 65
 
 ITERATIVE SOLVER CONVERGED.
 NUM. ITERATIONS =    6 RELATIVE RESIDUAL NORM =  6.244e-06 RHS NORM =  2.252e-04

               CONVERGENCE CHECKS FOR EQUILIBRIUM ITERATION     2


 AVERAGE FORCE                      1.605E-04   TIME AVG. FORCE       7.523E-05
 LARGEST SCALED RESIDUAL FORCE      6.482E-07   AT NODE          1   DOF  3
   INSTANCE: PART-1-1                                                                        
  CORRESPONDING RESIDUAL FORCE      6.482E-07
 LARGEST INCREMENT OF DISP.         3.354E-06   AT NODE       1722   DOF  2
   INSTANCE: PART-1-1                                                                        
 LARGEST CORRECTION TO DISP.        9.096E-08   AT NODE        126   DOF  3
   INSTANCE: PART-1-1                                                                        
          FORCE     EQUILIBRIUM NOT ACHIEVED WITHIN TOLERANCE.
 
	SYMMETRIC ITERATIVE SOLVER RUNNING ON
 	1 HOST:        16 MPI RANKS x 1 THREAD
 	NUMBER OF EQUATIONS:     4002
 	NUMBER OF RHS:           1
 	KRYLOV METHOD:           CG
 	PRECONDITIONER:          PAMG
 	CONVERGENCE TOL:         1.000e-05
 	MAXIMUM ITERATIONS:      200
 	SETUP TIME:              0.2 SEC
 	APPLY TIME:              0.0 SEC
 
    NUMBER OF MATRIX-VECTOR MULTIPLICATIONS: 65
 
 ITERATIVE SOLVER CONVERGED.
 NUM. ITERATIONS =    6 RELATIVE RESIDUAL NORM =  9.606e-06 RHS NORM =  1.257e-06

               CONVERGENCE CHECKS FOR EQUILIBRIUM ITERATION     3


 AVERAGE FORCE                      1.604E-04   TIME AVG. FORCE       7.523E-05
 LARGEST SCALED RESIDUAL FORCE     -2.625E-09   AT NODE       1717   DOF  3
   INSTANCE: PART-1-1                                                                        
  CORRESPONDING RESIDUAL FORCE     -2.625E-09
 LARGEST INCREMENT OF DISP.         3.354E-06   AT NODE       1722   DOF  2
   INSTANCE: PART-1-1                                                                        
 LARGEST CORRECTION TO DISP.        5.584E-10   AT NODE        126   DOF  3
   INSTANCE: PART-1-1                                                                        
          THE FORCE     EQUILIBRIUM EQUATIONS HAVE CONVERGED
          TIME INCREMENT MAY NOW INCREASE TO    5.000E-02

 ITERATION SUMMARY FOR THE INCREMENT:   3 TOTAL ITERATIONS, OF WHICH
   0 ARE SEVERE DISCONTINUITY ITERATIONS AND  3 ARE EQUILIBRIUM ITERATIONS.

 TIME INCREMENT COMPLETED  5.000E-02,  FRACTION OF STEP COMPLETED  2.636E-02
 STEP TIME COMPLETED        1.45    ,  TOTAL TIME COMPLETED         1.45    


  INCREMENT    17 STARTS. ATTEMPT NUMBER  1, TIME INCREMENT  5.000E-02
 
	SYMMETRIC ITERATIVE SOLVER RUNNING ON
 	1 HOST:        16 MPI RANKS x 1 THREAD
 	NUMBER OF EQUATIONS:     4002
 	NUMBER OF RHS:           1
 	KRYLOV METHOD:           CG
 	PRECONDITIONER:          PAMG
 	CONVERGENCE TOL:         1.000e-05
 	MAXIMUM ITERATIONS:      200
 	SETUP TIME:              0.2 SEC
 	APPLY TIME:              0.0 SEC
 
    NUMBER OF MATRIX-VECTOR MULTIPLICATIONS: 65
 
 ITERATIVE SOLVER CONVERGED.
 NUM. ITERATIONS =    6 RELATIVE RESIDUAL NORM =  6.022e-06 RHS NORM =  1.194e-03

               CONVERGENCE CHECKS FOR EQUILIBRIUM ITERATION     1


 AVERAGE FORCE                      1.676E-04   TIME AVG. FORCE       8.067E-05
 LARGEST SCALED RESIDUAL FORCE      1.022E-05   AT NODE          1   DOF  3
   INSTANCE: PART-1-1                                                                        
  CORRESPONDING RESIDUAL FORCE      1.022E-05
 LARGEST INCREMENT OF DISP.         3.352E-06   AT NODE       1721   DOF  2
   INSTANCE: PART-1-1                                                                        
 LARGEST CORRECTION TO DISP.        4.342E-07   AT NODE        129   DOF  3
   INSTANCE: PART-1-1                                                                        
          FORCE     EQUILIBRIUM NOT ACHIEVED WITHIN TOLERANCE.
 
	SYMMETRIC ITERATIVE SOLVER RUNNING ON
 	1 HOST:        16 MPI RANKS x 1 THREAD
 	NUMBER OF EQUATIONS:     4002
 	NUMBER OF RHS:           1
 	KRYLOV METHOD:           CG
 	PRECONDITIONER:          PAMG
 	CONVERGENCE TOL:         1.000e-05
 	MAXIMUM ITERATIONS:      200
 	SETUP TIME:              0.2 SEC
 	APPLY TIME:              0.0 SEC
 
    NUMBER OF MATRIX-VECTOR MULTIPLICATIONS: 65
 
 ITERATIVE SOLVER CONVERGED.
 NUM. ITERATIONS =    6 RELATIVE RESIDUAL NORM =  9.580e-06 RHS NORM =  1.777e-05

               CONVERGENCE CHECKS FOR EQUILIBRIUM ITERATION     2


 AVERAGE FORCE                      1.676E-04   TIME AVG. FORCE       8.067E-05
 LARGEST SCALED RESIDUAL FORCE     -3.836E-08   AT NODE       1717   DOF  3
   INSTANCE: PART-1-1                                                                        
  CORRESPONDING RESIDUAL FORCE     -3.836E-08
 LARGEST INCREMENT OF DISP.         3.353E-06   AT NODE       1721   DOF  2
   INSTANCE: PART-1-1                                                                        
 LARGEST CORRECTION TO DISP.        7.649E-09   AT NODE        128   DOF  3
   INSTANCE: PART-1-1                                                                        
          THE FORCE     EQUILIBRIUM EQUATIONS HAVE CONVERGED
          TIME INCREMENT MAY NOW INCREASE TO    7.500E-02

 ITERATION SUMMARY FOR THE INCREMENT:   2 TOTAL ITERATIONS, OF WHICH
   0 ARE SEVERE DISCONTINUITY ITERATIONS AND  2 ARE EQUILIBRIUM ITERATIONS.

 TIME INCREMENT COMPLETED  5.000E-02,  FRACTION OF STEP COMPLETED  2.727E-02
 STEP TIME COMPLETED        1.50    ,  TOTAL TIME COMPLETED         1.50    


  INCREMENT    18 STARTS. ATTEMPT NUMBER  1, TIME INCREMENT  7.500E-02
 
	SYMMETRIC ITERATIVE SOLVER RUNNING ON
 	1 HOST:        16 MPI RANKS x 1 THREAD
 	NUMBER OF EQUATIONS:     4002
 	NUMBER OF RHS:           1
 	KRYLOV METHOD:           CG
 	PRECONDITIONER:          PAMG
 	CONVERGENCE TOL:         1.000e-05
 	MAXIMUM ITERATIONS:      200
 	SETUP TIME:              0.2 SEC
 	APPLY TIME:              0.0 SEC
 
    NUMBER OF MATRIX-VECTOR MULTIPLICATIONS: 65
 
 ITERATIVE SOLVER CONVERGED.
 NUM. ITERATIONS =    6 RELATIVE RESIDUAL NORM =  7.143e-06 RHS NORM =  1.298e-02

               CONVERGENCE CHECKS FOR EQUILIBRIUM ITERATION     1


 AVERAGE FORCE                      1.709E-04   TIME AVG. FORCE       8.568E-05
 LARGEST SCALED RESIDUAL FORCE     -1.341E-04   AT NODE       1596   DOF  1
   INSTANCE: PART-1-1                                                                        
  CORRESPONDING RESIDUAL FORCE     -1.341E-04
 LARGEST INCREMENT OF DISP.         2.509E-06   AT NODE       1577   DOF  2
   INSTANCE: PART-1-1                                                                        
 LARGEST CORRECTION TO DISP.       -2.546E-06   AT NODE       1721   DOF  2
   INSTANCE: PART-1-1                                                                        
          FORCE     EQUILIBRIUM NOT ACHIEVED WITHIN TOLERANCE.
 
	SYMMETRIC ITERATIVE SOLVER RUNNING ON
 	1 HOST:        16 MPI RANKS x 1 THREAD
 	NUMBER OF EQUATIONS:     4002
 	NUMBER OF RHS:           1
 	KRYLOV METHOD:           CG
 	PRECONDITIONER:          PAMG
 	CONVERGENCE TOL:         1.000e-05
 	MAXIMUM ITERATIONS:      200
 	SETUP TIME:              0.1 SEC
 	APPLY TIME:              0.0 SEC
 
    NUMBER OF MATRIX-VECTOR MULTIPLICATIONS: 65
 
 ITERATIVE SOLVER CONVERGED.
 NUM. ITERATIONS =    6 RELATIVE RESIDUAL NORM =  6.180e-06 RHS NORM =  1.972e-04

               CONVERGENCE CHECKS FOR EQUILIBRIUM ITERATION     2


 AVERAGE FORCE                      1.709E-04   TIME AVG. FORCE       8.568E-05
 LARGEST SCALED RESIDUAL FORCE      1.082E-07   AT NODE       1717   DOF  3
   INSTANCE: PART-1-1                                                                        
  CORRESPONDING RESIDUAL FORCE      1.082E-07
 LARGEST INCREMENT OF DISP.         2.505E-06   AT NODE       1577   DOF  2
   INSTANCE: PART-1-1                                                                        
 LARGEST CORRECTION TO DISP.        4.546E-08   AT NODE        126   DOF  3
   INSTANCE: PART-1-1                                                                        
 ESTIMATE OF DISP.    CORRECTION   -3.669E-11
 FORCE     EQUILIB. ACCEPTED BASED ON SMALL RESIDUAL AND ESTIMATED CORRECTION
          TIME INCREMENT MAY NOW INCREASE TO    0.113    
          TIME INCREMENT REDUCED TO   2.500E-02 TO MEET NEXT OUTPUT TIME POINT

 ITERATION SUMMARY FOR THE INCREMENT:   2 TOTAL ITERATIONS, OF WHICH
   0 ARE SEVERE DISCONTINUITY ITERATIONS AND  2 ARE EQUILIBRIUM ITERATIONS.

 TIME INCREMENT COMPLETED  7.500E-02,  FRACTION OF STEP COMPLETED  2.864E-02
 STEP TIME COMPLETED        1.58    ,  TOTAL TIME COMPLETED         1.58    


  INCREMENT    19 STARTS. ATTEMPT NUMBER  1, TIME INCREMENT  2.500E-02
 
	SYMMETRIC ITERATIVE SOLVER RUNNING ON
 	1 HOST:        16 MPI RANKS x 1 THREAD
 	NUMBER OF EQUATIONS:     4002
 	NUMBER OF RHS:           1
 	KRYLOV METHOD:           CG
 	PRECONDITIONER:          PAMG
 	CONVERGENCE TOL:         1.000e-05
 	MAXIMUM ITERATIONS:      200
 	SETUP TIME:              0.2 SEC
 	APPLY TIME:              0.0 SEC
 
    NUMBER OF MATRIX-VECTOR MULTIPLICATIONS: 65
 
 ITERATIVE SOLVER CONVERGED.
 NUM. ITERATIONS =    6 RELATIVE RESIDUAL NORM =  7.181e-06 RHS NORM =  1.239e-04

               CONVERGENCE CHECKS FOR EQUILIBRIUM ITERATION     1


 AVERAGE FORCE                      1.722E-04   TIME AVG. FORCE       9.023E-05
 LARGEST SCALED RESIDUAL FORCE      4.866E-07   AT NODE          1   DOF  3
   INSTANCE: PART-1-1                                                                        
  CORRESPONDING RESIDUAL FORCE      4.866E-07
 LARGEST INCREMENT OF DISP.         8.254E-07   AT NODE       1579   DOF  2
   INSTANCE: PART-1-1                                                                        
 LARGEST CORRECTION TO DISP.       -4.997E-08   AT NODE        143   DOF  3
   INSTANCE: PART-1-1                                                                        
          FORCE     EQUILIBRIUM NOT ACHIEVED WITHIN TOLERANCE.
 
	SYMMETRIC ITERATIVE SOLVER RUNNING ON
 	1 HOST:        16 MPI RANKS x 1 THREAD
 	NUMBER OF EQUATIONS:     4002
 	NUMBER OF RHS:           1
 	KRYLOV METHOD:           CG
 	PRECONDITIONER:          PAMG
 	CONVERGENCE TOL:         1.000e-05
 	MAXIMUM ITERATIONS:      200
 	SETUP TIME:              0.2 SEC
 	APPLY TIME:              0.0 SEC
 
    NUMBER OF MATRIX-VECTOR MULTIPLICATIONS: 65
 
 ITERATIVE SOLVER CONVERGED.
 NUM. ITERATIONS =    6 RELATIVE RESIDUAL NORM =  8.910e-06 RHS NORM =  8.212e-07

               CONVERGENCE CHECKS FOR EQUILIBRIUM ITERATION     2


 AVERAGE FORCE                      1.722E-04   TIME AVG. FORCE       9.023E-05
 LARGEST SCALED RESIDUAL FORCE      7.210E-10   AT NODE       1596   DOF  1
   INSTANCE: PART-1-1                                                                        
  CORRESPONDING RESIDUAL FORCE      7.210E-10
 LARGEST INCREMENT OF DISP.         8.255E-07   AT NODE       1579   DOF  2
   INSTANCE: PART-1-1                                                                        
 LARGEST CORRECTION TO DISP.        3.259E-10   AT NODE        143   DOF  3
   INSTANCE: PART-1-1                                                                        
          THE FORCE     EQUILIBRIUM EQUATIONS HAVE CONVERGED
          TIME INCREMENT MAY NOW INCREASE TO    0.169    
          TIME INCREMENT REDUCED TO   0.100     TO MEET NEXT OUTPUT TIME POINT

 ITERATION SUMMARY FOR THE INCREMENT:   2 TOTAL ITERATIONS, OF WHICH
   0 ARE SEVERE DISCONTINUITY ITERATIONS AND  2 ARE EQUILIBRIUM ITERATIONS.

 TIME INCREMENT COMPLETED  2.500E-02,  FRACTION OF STEP COMPLETED  2.909E-02
 STEP TIME COMPLETED        1.60    ,  TOTAL TIME COMPLETED         1.60    


  INCREMENT    20 STARTS. ATTEMPT NUMBER  1, TIME INCREMENT  0.100    
 
	SYMMETRIC ITERATIVE SOLVER RUNNING ON
 	1 HOST:        16 MPI RANKS x 1 THREAD
 	NUMBER OF EQUATIONS:     4002
 	NUMBER OF RHS:           1
 	KRYLOV METHOD:           CG
 	PRECONDITIONER:          PAMG
 	CONVERGENCE TOL:         1.000e-05
 	MAXIMUM ITERATIONS:      200
 	SETUP TIME:              0.1 SEC
 	APPLY TIME:              0.0 SEC
 
    NUMBER OF MATRIX-VECTOR MULTIPLICATIONS: 65
 
 ITERATIVE SOLVER CONVERGED.
 NUM. ITERATIONS =    6 RELATIVE RESIDUAL NORM =  7.157e-06 RHS NORM =  1.855e-02

               CONVERGENCE CHECKS FOR EQUILIBRIUM ITERATION     1


 AVERAGE FORCE                      1.811E-04   TIME AVG. FORCE       9.478E-05
 LARGEST SCALED RESIDUAL FORCE      2.714E-04   AT NODE          1   DOF  3
   INSTANCE: PART-1-1                                                                        
  CORRESPONDING RESIDUAL FORCE      2.714E-04
 LARGEST INCREMENT OF DISP.         6.564E-06   AT NODE       1579   DOF  2
   INSTANCE: PART-1-1                                                                        
 LARGEST CORRECTION TO DISP.        3.262E-06   AT NODE       1579   DOF  2
   INSTANCE: PART-1-1                                                                        
          FORCE     EQUILIBRIUM NOT ACHIEVED WITHIN TOLERANCE.
 
	SYMMETRIC ITERATIVE SOLVER RUNNING ON
 	1 HOST:        16 MPI RANKS x 1 THREAD
 	NUMBER OF EQUATIONS:     4002
 	NUMBER OF RHS:           1
 	KRYLOV METHOD:           CG
 	PRECONDITIONER:          PAMG
 	CONVERGENCE TOL:         1.000e-05
 	MAXIMUM ITERATIONS:      200
 	SETUP TIME:              0.1 SEC
 	APPLY TIME:              0.0 SEC
 
    NUMBER OF MATRIX-VECTOR MULTIPLICATIONS: 65
 
 ITERATIVE SOLVER CONVERGED.
 NUM. ITERATIONS =    6 RELATIVE RESIDUAL NORM =  9.100e-06 RHS NORM =  3.419e-04
 

 ***NOTE: USER SUBROUTINE REQUESTS A TIME INCREMENT CHANGE.


  INCREMENT    20 STARTS. ATTEMPT NUMBER  2, TIME INCREMENT  5.000E-02
 
	SYMMETRIC ITERATIVE SOLVER RUNNING ON
 	1 HOST:        16 MPI RANKS x 1 THREAD
 	NUMBER OF EQUATIONS:     4002
 	NUMBER OF RHS:           1
 	KRYLOV METHOD:           CG
 	PRECONDITIONER:          PAMG
 	CONVERGENCE TOL:         1.000e-05
 	MAXIMUM ITERATIONS:      200
 	SETUP TIME:              0.2 SEC
 	APPLY TIME:              0.0 SEC
 
    NUMBER OF MATRIX-VECTOR MULTIPLICATIONS: 65
 
 ITERATIVE SOLVER CONVERGED.
 NUM. ITERATIONS =    6 RELATIVE RESIDUAL NORM =  6.272e-06 RHS NORM =  9.690e-03

               CONVERGENCE CHECKS FOR EQUILIBRIUM ITERATION     1


 AVERAGE FORCE                      1.777E-04   TIME AVG. FORCE       9.461E-05
 LARGEST SCALED RESIDUAL FORCE      1.287E-04   AT NODE          1   DOF  3
   INSTANCE: PART-1-1                                                                        
  CORRESPONDING RESIDUAL FORCE      1.287E-04
 LARGEST INCREMENT OF DISP.         3.281E-06   AT NODE       1577   DOF  2
   INSTANCE: PART-1-1                                                                        
 LARGEST CORRECTION TO DISP.        1.633E-06   AT NODE       1577   DOF  2
   INSTANCE: PART-1-1                                                                        
          FORCE     EQUILIBRIUM NOT ACHIEVED WITHIN TOLERANCE.
 
	SYMMETRIC ITERATIVE SOLVER RUNNING ON
 	1 HOST:        16 MPI RANKS x 1 THREAD
 	NUMBER OF EQUATIONS:     4002
 	NUMBER OF RHS:           1
 	KRYLOV METHOD:           CG
 	PRECONDITIONER:          PAMG
 	CONVERGENCE TOL:         1.000e-05
 	MAXIMUM ITERATIONS:      200
 	SETUP TIME:              0.2 SEC
 	APPLY TIME:              0.0 SEC
 
    NUMBER OF MATRIX-VECTOR MULTIPLICATIONS: 65
 
 ITERATIVE SOLVER CONVERGED.
 NUM. ITERATIONS =    6 RELATIVE RESIDUAL NORM =  7.529e-06 RHS NORM =  1.688e-04

               CONVERGENCE CHECKS FOR EQUILIBRIUM ITERATION     2


 AVERAGE FORCE                      1.776E-04   TIME AVG. FORCE       9.460E-05
 LARGEST SCALED RESIDUAL FORCE      3.723E-07   AT NODE          1   DOF  3
   INSTANCE: PART-1-1                                                                        
  CORRESPONDING RESIDUAL FORCE      3.723E-07
 LARGEST INCREMENT OF DISP.         3.282E-06   AT NODE       1577   DOF  2
   INSTANCE: PART-1-1                                                                        
 LARGEST CORRECTION TO DISP.        6.418E-08   AT NODE        115   DOF  3
   INSTANCE: PART-1-1                                                                        
 ESTIMATE OF DISP.    CORRECTION    1.856E-10
 FORCE     EQUILIB. ACCEPTED BASED ON SMALL RESIDUAL AND ESTIMATED CORRECTION
          TIME INCREMENT MAY NOW INCREASE TO    5.000E-02

 ITERATION SUMMARY FOR THE INCREMENT:   2 TOTAL ITERATIONS, OF WHICH
   0 ARE SEVERE DISCONTINUITY ITERATIONS AND  2 ARE EQUILIBRIUM ITERATIONS.

 TIME INCREMENT COMPLETED  5.000E-02,  FRACTION OF STEP COMPLETED  3.000E-02
 STEP TIME COMPLETED        1.65    ,  TOTAL TIME COMPLETED         1.65    


  INCREMENT    21 STARTS. ATTEMPT NUMBER  1, TIME INCREMENT  5.000E-02
 
	SYMMETRIC ITERATIVE SOLVER RUNNING ON
 	1 HOST:        16 MPI RANKS x 1 THREAD
 	NUMBER OF EQUATIONS:     4002
 	NUMBER OF RHS:           1
 	KRYLOV METHOD:           CG
 	PRECONDITIONER:          PAMG
 	CONVERGENCE TOL:         1.000e-05
 	MAXIMUM ITERATIONS:      200
 	SETUP TIME:              0.2 SEC
 	APPLY TIME:              0.0 SEC
 
    NUMBER OF MATRIX-VECTOR MULTIPLICATIONS: 65
 
 ITERATIVE SOLVER CONVERGED.
 NUM. ITERATIONS =    6 RELATIVE RESIDUAL NORM =  6.910e-06 RHS NORM =  6.588e-04

               CONVERGENCE CHECKS FOR EQUILIBRIUM ITERATION     1


 AVERAGE FORCE                      1.816E-04   TIME AVG. FORCE       9.874E-05
 LARGEST SCALED RESIDUAL FORCE      3.307E-06   AT NODE          1   DOF  3
   INSTANCE: PART-1-1                                                                        
  CORRESPONDING RESIDUAL FORCE      3.307E-06
 LARGEST INCREMENT OF DISP.         3.279E-06   AT NODE       1579   DOF  2
   INSTANCE: PART-1-1                                                                        
 LARGEST CORRECTION TO DISP.        2.293E-07   AT NODE        141   DOF  3
   INSTANCE: PART-1-1                                                                        
          FORCE     EQUILIBRIUM NOT ACHIEVED WITHIN TOLERANCE.
 
	SYMMETRIC ITERATIVE SOLVER RUNNING ON
 	1 HOST:        16 MPI RANKS x 1 THREAD
 	NUMBER OF EQUATIONS:     4002
 	NUMBER OF RHS:           1
 	KRYLOV METHOD:           CG
 	PRECONDITIONER:          PAMG
 	CONVERGENCE TOL:         1.000e-05
 	MAXIMUM ITERATIONS:      200
 	SETUP TIME:              0.1 SEC
 	APPLY TIME:              0.0 SEC
 
    NUMBER OF MATRIX-VECTOR MULTIPLICATIONS: 74
 
 ITERATIVE SOLVER CONVERGED.
 NUM. ITERATIONS =    7 RELATIVE RESIDUAL NORM =  1.799e-06 RHS NORM =  5.065e-06

               CONVERGENCE CHECKS FOR EQUILIBRIUM ITERATION     2


 AVERAGE FORCE                      1.816E-04   TIME AVG. FORCE       9.874E-05
 LARGEST SCALED RESIDUAL FORCE     -8.723E-09   AT NODE       1717   DOF  3
   INSTANCE: PART-1-1                                                                        
  CORRESPONDING RESIDUAL FORCE     -8.723E-09
 LARGEST INCREMENT OF DISP.         3.279E-06   AT NODE       1579   DOF  2
   INSTANCE: PART-1-1                                                                        
 LARGEST CORRECTION TO DISP.       -2.326E-09   AT NODE       1071   DOF  2
   INSTANCE: PART-1-1                                                                        
          THE FORCE     EQUILIBRIUM EQUATIONS HAVE CONVERGED
          TIME INCREMENT MAY NOW INCREASE TO    7.500E-02

 ITERATION SUMMARY FOR THE INCREMENT:   2 TOTAL ITERATIONS, OF WHICH
   0 ARE SEVERE DISCONTINUITY ITERATIONS AND  2 ARE EQUILIBRIUM ITERATIONS.

 TIME INCREMENT COMPLETED  5.000E-02,  FRACTION OF STEP COMPLETED  3.091E-02
 STEP TIME COMPLETED        1.70    ,  TOTAL TIME COMPLETED         1.70    


  INCREMENT    22 STARTS. ATTEMPT NUMBER  1, TIME INCREMENT  7.500E-02
 
	SYMMETRIC ITERATIVE SOLVER RUNNING ON
 	1 HOST:        16 MPI RANKS x 1 THREAD
 	NUMBER OF EQUATIONS:     4002
 	NUMBER OF RHS:           1
 	KRYLOV METHOD:           CG
 	PRECONDITIONER:          PAMG
 	CONVERGENCE TOL:         1.000e-05
 	MAXIMUM ITERATIONS:      200
 	SETUP TIME:              0.2 SEC
 	APPLY TIME:              0.0 SEC
 
    NUMBER OF MATRIX-VECTOR MULTIPLICATIONS: 65
 
 ITERATIVE SOLVER CONVERGED.
 NUM. ITERATIONS =    6 RELATIVE RESIDUAL NORM =  8.223e-06 RHS NORM =  1.273e-02

               CONVERGENCE CHECKS FOR EQUILIBRIUM ITERATION     1


 AVERAGE FORCE                      1.828E-04   TIME AVG. FORCE       1.026E-04
 LARGEST SCALED RESIDUAL FORCE     -1.411E-04   AT NODE       1596   DOF  1
   INSTANCE: PART-1-1                                                                        
  CORRESPONDING RESIDUAL FORCE     -1.411E-04
 LARGEST INCREMENT OF DISP.         2.467E-06   AT NODE       1579   DOF  2
   INSTANCE: PART-1-1                                                                        
 LARGEST CORRECTION TO DISP.       -2.463E-06   AT NODE       1577   DOF  2
   INSTANCE: PART-1-1                                                                        
          FORCE     EQUILIBRIUM NOT ACHIEVED WITHIN TOLERANCE.
 
	SYMMETRIC ITERATIVE SOLVER RUNNING ON
 	1 HOST:        16 MPI RANKS x 1 THREAD
 	NUMBER OF EQUATIONS:     4002
 	NUMBER OF RHS:           1
 	KRYLOV METHOD:           CG
 	PRECONDITIONER:          PAMG
 	CONVERGENCE TOL:         1.000e-05
 	MAXIMUM ITERATIONS:      200
 	SETUP TIME:              0.2 SEC
 	APPLY TIME:              0.0 SEC
 
    NUMBER OF MATRIX-VECTOR MULTIPLICATIONS: 65
 
 ITERATIVE SOLVER CONVERGED.
 NUM. ITERATIONS =    6 RELATIVE RESIDUAL NORM =  5.491e-06 RHS NORM =  1.864e-04

               CONVERGENCE CHECKS FOR EQUILIBRIUM ITERATION     2


 AVERAGE FORCE                      1.827E-04   TIME AVG. FORCE       1.026E-04
 LARGEST SCALED RESIDUAL FORCE      1.161E-07   AT NODE          1   DOF  3
   INSTANCE: PART-1-1                                                                        
  CORRESPONDING RESIDUAL FORCE      1.161E-07
 LARGEST INCREMENT OF DISP.         2.467E-06   AT NODE       1579   DOF  2
   INSTANCE: PART-1-1                                                                        
 LARGEST CORRECTION TO DISP.        4.973E-08   AT NODE        129   DOF  3
   INSTANCE: PART-1-1                                                                        
 ESTIMATE OF DISP.    CORRECTION   -4.089E-11
 FORCE     EQUILIB. ACCEPTED BASED ON SMALL RESIDUAL AND ESTIMATED CORRECTION
          TIME INCREMENT MAY NOW INCREASE TO    0.113    
          TIME INCREMENT REDUCED TO   2.500E-02 TO MEET NEXT OUTPUT TIME POINT

 ITERATION SUMMARY FOR THE INCREMENT:   2 TOTAL ITERATIONS, OF WHICH
   0 ARE SEVERE DISCONTINUITY ITERATIONS AND  2 ARE EQUILIBRIUM ITERATIONS.

 TIME INCREMENT COMPLETED  7.500E-02,  FRACTION OF STEP COMPLETED  3.227E-02
 STEP TIME COMPLETED        1.78    ,  TOTAL TIME COMPLETED         1.78    


  INCREMENT    23 STARTS. ATTEMPT NUMBER  1, TIME INCREMENT  2.500E-02
 
	SYMMETRIC ITERATIVE SOLVER RUNNING ON
 	1 HOST:        16 MPI RANKS x 1 THREAD
 	NUMBER OF EQUATIONS:     4002
 	NUMBER OF RHS:           1
 	KRYLOV METHOD:           CG
 	PRECONDITIONER:          PAMG
 	CONVERGENCE TOL:         1.000e-05
 	MAXIMUM ITERATIONS:      200
 	SETUP TIME:              0.2 SEC
 	APPLY TIME:              0.0 SEC
 
    NUMBER OF MATRIX-VECTOR MULTIPLICATIONS: 65
 
 ITERATIVE SOLVER CONVERGED.
 NUM. ITERATIONS =    6 RELATIVE RESIDUAL NORM =  5.654e-06 RHS NORM =  1.669e-04

               CONVERGENCE CHECKS FOR EQUILIBRIUM ITERATION     1


 AVERAGE FORCE                      1.834E-04   TIME AVG. FORCE       1.061E-04
 LARGEST SCALED RESIDUAL FORCE      5.231E-07   AT NODE          1   DOF  3
   INSTANCE: PART-1-1                                                                        
  CORRESPONDING RESIDUAL FORCE      5.231E-07
 LARGEST INCREMENT OF DISP.         8.197E-07   AT NODE       1579   DOF  2
   INSTANCE: PART-1-1                                                                        
 LARGEST CORRECTION TO DISP.       -5.727E-08   AT NODE        129   DOF  3
   INSTANCE: PART-1-1                                                                        
 ESTIMATE OF DISP.    CORRECTION    2.655E-10
 FORCE     EQUILIB. ACCEPTED BASED ON SMALL RESIDUAL AND ESTIMATED CORRECTION
          TIME INCREMENT MAY NOW INCREASE TO    0.169    
          TIME INCREMENT REDUCED TO   0.100     TO MEET NEXT OUTPUT TIME POINT

 ITERATION SUMMARY FOR THE INCREMENT:   1 TOTAL ITERATIONS, OF WHICH
   0 ARE SEVERE DISCONTINUITY ITERATIONS AND  1 ARE EQUILIBRIUM ITERATIONS.

 TIME INCREMENT COMPLETED  2.500E-02,  FRACTION OF STEP COMPLETED  3.273E-02
 STEP TIME COMPLETED        1.80    ,  TOTAL TIME COMPLETED         1.80    


  INCREMENT    24 STARTS. ATTEMPT NUMBER  1, TIME INCREMENT  0.100    
 
	SYMMETRIC ITERATIVE SOLVER RUNNING ON
 	1 HOST:        16 MPI RANKS x 1 THREAD
 	NUMBER OF EQUATIONS:     4002
 	NUMBER OF RHS:           1
 	KRYLOV METHOD:           CG
 	PRECONDITIONER:          PAMG
 	CONVERGENCE TOL:         1.000e-05
 	MAXIMUM ITERATIONS:      200
 	SETUP TIME:              0.1 SEC
 	APPLY TIME:              0.0 SEC
 
    NUMBER OF MATRIX-VECTOR MULTIPLICATIONS: 65
 
 ITERATIVE SOLVER CONVERGED.
 NUM. ITERATIONS =    6 RELATIVE RESIDUAL NORM =  7.368e-06 RHS NORM =  1.789e-02

               CONVERGENCE CHECKS FOR EQUILIBRIUM ITERATION     1


 AVERAGE FORCE                      1.900E-04   TIME AVG. FORCE       1.096E-04
 LARGEST SCALED RESIDUAL FORCE      2.196E-04   AT NODE          1   DOF  3
   INSTANCE: PART-1-1                                                                        
  CORRESPONDING RESIDUAL FORCE      2.196E-04
 LARGEST INCREMENT OF DISP.         6.487E-06   AT NODE       1579   DOF  2
   INSTANCE: PART-1-1                                                                        
 LARGEST CORRECTION TO DISP.        3.223E-06   AT NODE       1721   DOF  2
   INSTANCE: PART-1-1                                                                        
          FORCE     EQUILIBRIUM NOT ACHIEVED WITHIN TOLERANCE.
 
	SYMMETRIC ITERATIVE SOLVER RUNNING ON
[...]


 AVERAGE FORCE                      3.207E-04   TIME AVG. FORCE       2.580E-04
 LARGEST SCALED RESIDUAL FORCE      1.170E-06   AT NODE          1   DOF  3
   INSTANCE: PART-1-1                                                                        
  CORRESPONDING RESIDUAL FORCE      1.170E-06
 LARGEST INCREMENT OF DISP.         3.714E-06   AT NODE       1294   DOF  2
   INSTANCE: PART-1-1                                                                        
 LARGEST CORRECTION TO DISP.       -8.143E-08   AT NODE        284   DOF  3
   INSTANCE: PART-1-1                                                                        
 ESTIMATE OF DISP.    CORRECTION    6.517E-10
 FORCE     EQUILIB. ACCEPTED BASED ON SMALL RESIDUAL AND ESTIMATED CORRECTION
          TIME INCREMENT MAY NOW INCREASE TO    0.169    
          TIME INCREMENT REDUCED TO   0.100     TO MEET NEXT OUTPUT TIME POINT

 ITERATION SUMMARY FOR THE INCREMENT:   1 TOTAL ITERATIONS, OF WHICH
   0 ARE SEVERE DISCONTINUITY ITERATIONS AND  1 ARE EQUILIBRIUM ITERATIONS.

 TIME INCREMENT COMPLETED  2.500E-02,  FRACTION OF STEP COMPLETED  0.995    
 STEP TIME COMPLETED        54.7    ,  TOTAL TIME COMPLETED         54.7    


  INCREMENT   414 STARTS. ATTEMPT NUMBER  1, TIME INCREMENT  0.100    
 
	SYMMETRIC ITERATIVE SOLVER RUNNING ON
 	1 HOST:        16 MPI RANKS x 1 THREAD
 	NUMBER OF EQUATIONS:     4002
 	NUMBER OF RHS:           1
 	KRYLOV METHOD:           CG
 	PRECONDITIONER:          PAMG
 	CONVERGENCE TOL:         1.000e-05
 	MAXIMUM ITERATIONS:      200
 	SETUP TIME:              0.1 SEC
 	APPLY TIME:              0.0 SEC
 
    NUMBER OF MATRIX-VECTOR MULTIPLICATIONS: 65
 
 ITERATIVE SOLVER CONVERGED.
 NUM. ITERATIONS =    6 RELATIVE RESIDUAL NORM =  9.493e-06 RHS NORM =  4.289e-03

               CONVERGENCE CHECKS FOR EQUILIBRIUM ITERATION     1


 AVERAGE FORCE                      3.304E-04   TIME AVG. FORCE       2.582E-04
 LARGEST SCALED RESIDUAL FORCE      3.154E-05   AT NODE          1   DOF  3
   INSTANCE: PART-1-1                                                                        
  CORRESPONDING RESIDUAL FORCE      3.154E-05
 LARGEST INCREMENT OF DISP.         1.498E-05   AT NODE        279   DOF  2
   INSTANCE: PART-1-1                                                                        
 LARGEST CORRECTION TO DISP.        1.538E-06   AT NODE        116   DOF  3
   INSTANCE: PART-1-1                                                                        
          FORCE     EQUILIBRIUM NOT ACHIEVED WITHIN TOLERANCE.
 
	SYMMETRIC ITERATIVE SOLVER RUNNING ON
 	1 HOST:        16 MPI RANKS x 1 THREAD
 	NUMBER OF EQUATIONS:     4002
 	NUMBER OF RHS:           1
 	KRYLOV METHOD:           CG
 	PRECONDITIONER:          PAMG
 	CONVERGENCE TOL:         1.000e-05
 	MAXIMUM ITERATIONS:      200
 	SETUP TIME:              0.2 SEC
 	APPLY TIME:              0.0 SEC
 
    NUMBER OF MATRIX-VECTOR MULTIPLICATIONS: 74
 
 ITERATIVE SOLVER CONVERGED.
 NUM. ITERATIONS =    7 RELATIVE RESIDUAL NORM =  3.513e-06 RHS NORM =  5.588e-05
 

 ***NOTE: USER SUBROUTINE REQUESTS A TIME INCREMENT CHANGE.


  INCREMENT   414 STARTS. ATTEMPT NUMBER  2, TIME INCREMENT  5.000E-02
 
	SYMMETRIC ITERATIVE SOLVER RUNNING ON
 	1 HOST:        16 MPI RANKS x 1 THREAD
 	NUMBER OF EQUATIONS:     4002
 	NUMBER OF RHS:           1
 	KRYLOV METHOD:           CG
 	PRECONDITIONER:          PAMG
 	CONVERGENCE TOL:         1.000e-05
 	MAXIMUM ITERATIONS:      200
 	SETUP TIME:              0.2 SEC
 	APPLY TIME:              0.0 SEC
 
    NUMBER OF MATRIX-VECTOR MULTIPLICATIONS: 65
 
 ITERATIVE SOLVER CONVERGED.
 NUM. ITERATIONS =    6 RELATIVE RESIDUAL NORM =  7.087e-06 RHS NORM =  1.782e-03

               CONVERGENCE CHECKS FOR EQUILIBRIUM ITERATION     1


 AVERAGE FORCE                      3.262E-04   TIME AVG. FORCE       2.581E-04
 LARGEST SCALED RESIDUAL FORCE      6.029E-06   AT NODE          1   DOF  3
   INSTANCE: PART-1-1                                                                        
  CORRESPONDING RESIDUAL FORCE      6.029E-06
 LARGEST INCREMENT OF DISP.         7.517E-06   AT NODE       1294   DOF  2
   INSTANCE: PART-1-1                                                                        
 LARGEST CORRECTION TO DISP.        5.923E-07   AT NODE        116   DOF  3
   INSTANCE: PART-1-1                                                                        
          FORCE     EQUILIBRIUM NOT ACHIEVED WITHIN TOLERANCE.
 
	SYMMETRIC ITERATIVE SOLVER RUNNING ON
 	1 HOST:        16 MPI RANKS x 1 THREAD
 	NUMBER OF EQUATIONS:     4002
 	NUMBER OF RHS:           1
 	KRYLOV METHOD:           CG
 	PRECONDITIONER:          PAMG
 	CONVERGENCE TOL:         1.000e-05
 	MAXIMUM ITERATIONS:      200
 	SETUP TIME:              0.1 SEC
 	APPLY TIME:              0.0 SEC
 
    NUMBER OF MATRIX-VECTOR MULTIPLICATIONS: 74
 
 ITERATIVE SOLVER CONVERGED.
 NUM. ITERATIONS =    7 RELATIVE RESIDUAL NORM =  1.864e-06 RHS NORM =  1.195e-05

               CONVERGENCE CHECKS FOR EQUILIBRIUM ITERATION     2


 AVERAGE FORCE                      3.262E-04   TIME AVG. FORCE       2.581E-04
 LARGEST SCALED RESIDUAL FORCE     -2.054E-08   AT NODE       1717   DOF  3
   INSTANCE: PART-1-1                                                                        
  CORRESPONDING RESIDUAL FORCE     -2.054E-08
 LARGEST INCREMENT OF DISP.         7.516E-06   AT NODE       1294   DOF  2
   INSTANCE: PART-1-1                                                                        
 LARGEST CORRECTION TO DISP.        4.814E-09   AT NODE        127   DOF  3
   INSTANCE: PART-1-1                                                                        
          THE FORCE     EQUILIBRIUM EQUATIONS HAVE CONVERGED
          TIME INCREMENT MAY NOW INCREASE TO    7.500E-02
          TIME INCREMENT REDUCED TO   5.000E-02 TO MEET NEXT OUTPUT TIME POINT

 ITERATION SUMMARY FOR THE INCREMENT:   2 TOTAL ITERATIONS, OF WHICH
   0 ARE SEVERE DISCONTINUITY ITERATIONS AND  2 ARE EQUILIBRIUM ITERATIONS.

 TIME INCREMENT COMPLETED  5.000E-02,  FRACTION OF STEP COMPLETED  0.995    
 STEP TIME COMPLETED        54.8    ,  TOTAL TIME COMPLETED         54.8    


  INCREMENT   415 STARTS. ATTEMPT NUMBER  1, TIME INCREMENT  5.000E-02
 
	SYMMETRIC ITERATIVE SOLVER RUNNING ON
 	1 HOST:        16 MPI RANKS x 1 THREAD
 	NUMBER OF EQUATIONS:     4002
 	NUMBER OF RHS:           1
 	KRYLOV METHOD:           CG
 	PRECONDITIONER:          PAMG
 	CONVERGENCE TOL:         1.000e-05
 	MAXIMUM ITERATIONS:      200
 	SETUP TIME:              0.1 SEC
 	APPLY TIME:              0.0 SEC
 
    NUMBER OF MATRIX-VECTOR MULTIPLICATIONS: 65
 
 ITERATIVE SOLVER CONVERGED.
 NUM. ITERATIONS =    6 RELATIVE RESIDUAL NORM =  8.686e-06 RHS NORM =  5.354e-04

               CONVERGENCE CHECKS FOR EQUILIBRIUM ITERATION     1


 AVERAGE FORCE                      3.313E-04   TIME AVG. FORCE       2.583E-04
 LARGEST SCALED RESIDUAL FORCE      2.067E-06   AT NODE          1   DOF  3
   INSTANCE: PART-1-1                                                                        
  CORRESPONDING RESIDUAL FORCE      2.067E-06
 LARGEST INCREMENT OF DISP.         7.492E-06   AT NODE       1579   DOF  2
   INSTANCE: PART-1-1                                                                        
 LARGEST CORRECTION TO DISP.        1.797E-07   AT NODE        129   DOF  3
   INSTANCE: PART-1-1                                                                        
          FORCE     EQUILIBRIUM NOT ACHIEVED WITHIN TOLERANCE.
 
	SYMMETRIC ITERATIVE SOLVER RUNNING ON
 	1 HOST:        16 MPI RANKS x 1 THREAD
 	NUMBER OF EQUATIONS:     4002
 	NUMBER OF RHS:           1
 	KRYLOV METHOD:           CG
 	PRECONDITIONER:          PAMG
 	CONVERGENCE TOL:         1.000e-05
 	MAXIMUM ITERATIONS:      200
 	SETUP TIME:              0.1 SEC
 	APPLY TIME:              0.0 SEC
 
    NUMBER OF MATRIX-VECTOR MULTIPLICATIONS: 74
 
 ITERATIVE SOLVER CONVERGED.
 NUM. ITERATIONS =    7 RELATIVE RESIDUAL NORM =  1.835e-06 RHS NORM =  4.162e-06

               CONVERGENCE CHECKS FOR EQUILIBRIUM ITERATION     2


 AVERAGE FORCE                      3.313E-04   TIME AVG. FORCE       2.583E-04
 LARGEST SCALED RESIDUAL FORCE      9.007E-09   AT NODE       1717   DOF  1
   INSTANCE: PART-1-1                                                                        
  CORRESPONDING RESIDUAL FORCE      9.007E-09
 LARGEST INCREMENT OF DISP.         7.492E-06   AT NODE       1579   DOF  2
   INSTANCE: PART-1-1                                                                        
 LARGEST CORRECTION TO DISP.        1.481E-09   AT NODE         61   DOF  3
   INSTANCE: PART-1-1                                                                        
          THE FORCE     EQUILIBRIUM EQUATIONS HAVE CONVERGED
          TIME INCREMENT MAY NOW INCREASE TO    0.100    

 ITERATION SUMMARY FOR THE INCREMENT:   2 TOTAL ITERATIONS, OF WHICH
   0 ARE SEVERE DISCONTINUITY ITERATIONS AND  2 ARE EQUILIBRIUM ITERATIONS.

 TIME INCREMENT COMPLETED  5.000E-02,  FRACTION OF STEP COMPLETED  0.996    
 STEP TIME COMPLETED        54.8    ,  TOTAL TIME COMPLETED         54.8    


  INCREMENT   416 STARTS. ATTEMPT NUMBER  1, TIME INCREMENT  0.100    
 
	SYMMETRIC ITERATIVE SOLVER RUNNING ON
 	1 HOST:        16 MPI RANKS x 1 THREAD
 	NUMBER OF EQUATIONS:     4002
 	NUMBER OF RHS:           1
 	KRYLOV METHOD:           CG
 	PRECONDITIONER:          PAMG
 	CONVERGENCE TOL:         1.000e-05
 	MAXIMUM ITERATIONS:      200
 	SETUP TIME:              0.2 SEC
 	APPLY TIME:              0.0 SEC
 
    NUMBER OF MATRIX-VECTOR MULTIPLICATIONS: 74
 
 ITERATIVE SOLVER CONVERGED.
 NUM. ITERATIONS =    7 RELATIVE RESIDUAL NORM =  2.464e-06 RHS NORM =  2.192e-03
 

 ***NOTE: USER SUBROUTINE REQUESTS A TIME INCREMENT CHANGE.


  INCREMENT   416 STARTS. ATTEMPT NUMBER  2, TIME INCREMENT  5.000E-02
 
	SYMMETRIC ITERATIVE SOLVER RUNNING ON
 	1 HOST:        16 MPI RANKS x 1 THREAD
 	NUMBER OF EQUATIONS:     4002
 	NUMBER OF RHS:           1
 	KRYLOV METHOD:           CG
 	PRECONDITIONER:          PAMG
 	CONVERGENCE TOL:         1.000e-05
 	MAXIMUM ITERATIONS:      200
 	SETUP TIME:              0.2 SEC
 	APPLY TIME:              0.0 SEC
 
    NUMBER OF MATRIX-VECTOR MULTIPLICATIONS: 65
 
 ITERATIVE SOLVER CONVERGED.
 NUM. ITERATIONS =    6 RELATIVE RESIDUAL NORM =  7.958e-06 RHS NORM =  7.699e-04

               CONVERGENCE CHECKS FOR EQUILIBRIUM ITERATION     1


 AVERAGE FORCE                      3.362E-04   TIME AVG. FORCE       2.585E-04
 LARGEST SCALED RESIDUAL FORCE     -1.479E-06   AT NODE       1717   DOF  3
   INSTANCE: PART-1-1                                                                        
  CORRESPONDING RESIDUAL FORCE     -1.479E-06
 LARGEST INCREMENT OF DISP.         7.559E-06   AT NODE       1579   DOF  2
   INSTANCE: PART-1-1                                                                        
 LARGEST CORRECTION TO DISP.        2.301E-07   AT NODE        127   DOF  3
   INSTANCE: PART-1-1                                                                        
          FORCE     EQUILIBRIUM NOT ACHIEVED WITHIN TOLERANCE.
 
	SYMMETRIC ITERATIVE SOLVER RUNNING ON
 	1 HOST:        16 MPI RANKS x 1 THREAD
 	NUMBER OF EQUATIONS:     4002
 	NUMBER OF RHS:           1
 	KRYLOV METHOD:           CG
 	PRECONDITIONER:          PAMG
 	CONVERGENCE TOL:         1.000e-05
 	MAXIMUM ITERATIONS:      200
 	SETUP TIME:              0.1 SEC
 	APPLY TIME:              0.0 SEC
 
    NUMBER OF MATRIX-VECTOR MULTIPLICATIONS: 74
 
 ITERATIVE SOLVER CONVERGED.
 NUM. ITERATIONS =    7 RELATIVE RESIDUAL NORM =  2.035e-06 RHS NORM =  4.579e-06

               CONVERGENCE CHECKS FOR EQUILIBRIUM ITERATION     2


 AVERAGE FORCE                      3.362E-04   TIME AVG. FORCE       2.585E-04
 LARGEST SCALED RESIDUAL FORCE     -2.448E-08   AT NODE       1717   DOF  3
   INSTANCE: PART-1-1                                                                        
  CORRESPONDING RESIDUAL FORCE     -2.448E-08
 LARGEST INCREMENT OF DISP.         7.559E-06   AT NODE       1579   DOF  2
   INSTANCE: PART-1-1                                                                        
 LARGEST CORRECTION TO DISP.        1.794E-09   AT NODE       1562   DOF  3
   INSTANCE: PART-1-1                                                                        
          THE FORCE     EQUILIBRIUM EQUATIONS HAVE CONVERGED
          TIME INCREMENT MAY NOW INCREASE TO    7.500E-02
          TIME INCREMENT REDUCED TO   5.000E-02 TO MEET NEXT OUTPUT TIME POINT

 ITERATION SUMMARY FOR THE INCREMENT:   2 TOTAL ITERATIONS, OF WHICH
   0 ARE SEVERE DISCONTINUITY ITERATIONS AND  2 ARE EQUILIBRIUM ITERATIONS.

 TIME INCREMENT COMPLETED  5.000E-02,  FRACTION OF STEP COMPLETED  0.997    
 STEP TIME COMPLETED        54.9    ,  TOTAL TIME COMPLETED         54.9    


  INCREMENT   417 STARTS. ATTEMPT NUMBER  1, TIME INCREMENT  5.000E-02
 
	SYMMETRIC ITERATIVE SOLVER RUNNING ON
 	1 HOST:        16 MPI RANKS x 1 THREAD
 	NUMBER OF EQUATIONS:     4002
 	NUMBER OF RHS:           1
 	KRYLOV METHOD:           CG
 	PRECONDITIONER:          PAMG
 	CONVERGENCE TOL:         1.000e-05
 	MAXIMUM ITERATIONS:      200
 	SETUP TIME:              0.2 SEC
 	APPLY TIME:              0.0 SEC
 
    NUMBER OF MATRIX-VECTOR MULTIPLICATIONS: 65
 
 ITERATIVE SOLVER CONVERGED.
 NUM. ITERATIONS =    6 RELATIVE RESIDUAL NORM =  7.989e-06 RHS NORM =  4.562e-04

               CONVERGENCE CHECKS FOR EQUILIBRIUM ITERATION     1


 AVERAGE FORCE                      3.406E-04   TIME AVG. FORCE       2.587E-04
 LARGEST SCALED RESIDUAL FORCE      1.511E-06   AT NODE          1   DOF  3
   INSTANCE: PART-1-1                                                                        
  CORRESPONDING RESIDUAL FORCE      1.511E-06
 LARGEST INCREMENT OF DISP.         7.547E-06   AT NODE       1579   DOF  2
   INSTANCE: PART-1-1                                                                        
 LARGEST CORRECTION TO DISP.        1.409E-07   AT NODE        127   DOF  3
   INSTANCE: PART-1-1                                                                        
          FORCE     EQUILIBRIUM NOT ACHIEVED WITHIN TOLERANCE.
 
	SYMMETRIC ITERATIVE SOLVER RUNNING ON
 	1 HOST:        16 MPI RANKS x 1 THREAD
 	NUMBER OF EQUATIONS:     4002
 	NUMBER OF RHS:           1
 	KRYLOV METHOD:           CG
 	PRECONDITIONER:          PAMG
 	CONVERGENCE TOL:         1.000e-05
 	MAXIMUM ITERATIONS:      200
 	SETUP TIME:              0.1 SEC
 	APPLY TIME:              0.0 SEC
 
    NUMBER OF MATRIX-VECTOR MULTIPLICATIONS: 74
 
 ITERATIVE SOLVER CONVERGED.
 NUM. ITERATIONS =    7 RELATIVE RESIDUAL NORM =  1.715e-06 RHS NORM =  3.390e-06

               CONVERGENCE CHECKS FOR EQUILIBRIUM ITERATION     2


 AVERAGE FORCE                      3.406E-04   TIME AVG. FORCE       2.587E-04
 LARGEST SCALED RESIDUAL FORCE     -6.447E-09   AT NODE       1717   DOF  3
   INSTANCE: PART-1-1                                                                        
  CORRESPONDING RESIDUAL FORCE     -6.447E-09
 LARGEST INCREMENT OF DISP.         7.546E-06   AT NODE       1579   DOF  2
   INSTANCE: PART-1-1                                                                        
 LARGEST CORRECTION TO DISP.        1.166E-09   AT NODE        418   DOF  3
   INSTANCE: PART-1-1                                                                        
          THE FORCE     EQUILIBRIUM EQUATIONS HAVE CONVERGED
          TIME INCREMENT MAY NOW INCREASE TO    0.100    

 ITERATION SUMMARY FOR THE INCREMENT:   2 TOTAL ITERATIONS, OF WHICH
   0 ARE SEVERE DISCONTINUITY ITERATIONS AND  2 ARE EQUILIBRIUM ITERATIONS.

 TIME INCREMENT COMPLETED  5.000E-02,  FRACTION OF STEP COMPLETED  0.998    
 STEP TIME COMPLETED        54.9    ,  TOTAL TIME COMPLETED         54.9    


  INCREMENT   418 STARTS. ATTEMPT NUMBER  1, TIME INCREMENT  0.100    
 
	SYMMETRIC ITERATIVE SOLVER RUNNING ON
 	1 HOST:        16 MPI RANKS x 1 THREAD
 	NUMBER OF EQUATIONS:     4002
 	NUMBER OF RHS:           1
 	KRYLOV METHOD:           CG
 	PRECONDITIONER:          PAMG
 	CONVERGENCE TOL:         1.000e-05
 	MAXIMUM ITERATIONS:      200
 	SETUP TIME:              0.1 SEC
 	APPLY TIME:              0.0 SEC
 
    NUMBER OF MATRIX-VECTOR MULTIPLICATIONS: 74
 
 ITERATIVE SOLVER CONVERGED.
 NUM. ITERATIONS =    7 RELATIVE RESIDUAL NORM =  2.519e-06 RHS NORM =  1.618e-03

               CONVERGENCE CHECKS FOR EQUILIBRIUM ITERATION     1


 AVERAGE FORCE                      3.479E-04   TIME AVG. FORCE       2.589E-04
 LARGEST SCALED RESIDUAL FORCE     -7.389E-06   AT NODE       1717   DOF  3
   INSTANCE: PART-1-1                                                                        
  CORRESPONDING RESIDUAL FORCE     -7.389E-06
 LARGEST INCREMENT OF DISP.         1.514E-05   AT NODE       1579   DOF  2
   INSTANCE: PART-1-1                                                                        
 LARGEST CORRECTION TO DISP.        5.116E-07   AT NODE        122   DOF  3
   INSTANCE: PART-1-1                                                                        
          FORCE     EQUILIBRIUM NOT ACHIEVED WITHIN TOLERANCE.
 
	SYMMETRIC ITERATIVE SOLVER RUNNING ON
 	1 HOST:        16 MPI RANKS x 1 THREAD
 	NUMBER OF EQUATIONS:     4002
 	NUMBER OF RHS:           1
 	KRYLOV METHOD:           CG
 	PRECONDITIONER:          PAMG
 	CONVERGENCE TOL:         1.000e-05
 	MAXIMUM ITERATIONS:      200
 	SETUP TIME:              0.1 SEC
 	APPLY TIME:              0.0 SEC
 
    NUMBER OF MATRIX-VECTOR MULTIPLICATIONS: 74
 
 ITERATIVE SOLVER CONVERGED.
 NUM. ITERATIONS =    7 RELATIVE RESIDUAL NORM =  3.046e-06 RHS NORM =  1.790e-05

               CONVERGENCE CHECKS FOR EQUILIBRIUM ITERATION     2


 AVERAGE FORCE                      3.480E-04   TIME AVG. FORCE       2.589E-04
 LARGEST SCALED RESIDUAL FORCE     -7.342E-08   AT NODE       1717   DOF  3
   INSTANCE: PART-1-1                                                                        
  CORRESPONDING RESIDUAL FORCE     -7.342E-08
 LARGEST INCREMENT OF DISP.         1.514E-05   AT NODE       1579   DOF  2
   INSTANCE: PART-1-1                                                                        
 LARGEST CORRECTION TO DISP.       -1.012E-08   AT NODE        254   DOF  2
   INSTANCE: PART-1-1                                                                        
          THE FORCE     EQUILIBRIUM EQUATIONS HAVE CONVERGED

 ITERATION SUMMARY FOR THE INCREMENT:   2 TOTAL ITERATIONS, OF WHICH
   0 ARE SEVERE DISCONTINUITY ITERATIONS AND  2 ARE EQUILIBRIUM ITERATIONS.

 TIME INCREMENT COMPLETED  0.100    ,  FRACTION OF STEP COMPLETED   1.00    
 STEP TIME COMPLETED        55.0    ,  TOTAL TIME COMPLETED         55.0    


          THE ANALYSIS HAS BEEN COMPLETED



     ANALYSIS SUMMARY:
     TOTAL OF        418  INCREMENTS
                     156  CUTBACKS IN AUTOMATIC INCREMENTATION
                    1044  ITERATIONS INCLUDING CONTACT ITERATIONS IF PRESENT
                    1044  PASSES THROUGH THE EQUATION SOLVER OF WHICH 
                    1044  INVOLVE MATRIX DECOMPOSITION, INCLUDING
                       0  DECOMPOSITION(S) OF THE MASS MATRIX
                       1  REORDERING OF EQUATIONS TO MINIMIZE WAVEFRONT
                       2  ADDITIONAL RESIDUAL EVALUATIONS FOR LINE SEARCHES
                       1  ADDITIONAL OPERATOR EVALUATIONS FOR LINE SEARCHES
                       1  WARNING MESSAGES DURING USER INPUT PROCESSING
                       6  WARNING MESSAGES DURING ANALYSIS
                       0  ANALYSIS WARNINGS ARE NUMERICAL PROBLEM MESSAGES
                       0  ANALYSIS WARNINGS ARE NEGATIVE EIGENVALUE MESSAGES
                       0  ERROR MESSAGES



     JOB TIME SUMMARY
       USER TIME (SEC)      =     5.33E+02
       SYSTEM TIME (SEC)    =      38.    
       TOTAL CPU TIME (SEC) =     5.71E+02
       WALLCLOCK TIME (SEC) =          596
       MEMORY PEAK (GB)     =           96
