*Material, name=Stahl
*Density
 7.8e-09,
*Elastic
%youngs_mod%, 0.3
*Plastic, hardening=COMBINED, datatype=PARAMETERS, number backstresses=2
%sig_yield%, %c1%, %_gamma1%, %c2%, %_gamma2%, 
*Cyclic Hardening, parameters
%sig_yield%, %q_inf%, %b%
** 