 Abaqus/Standard 2022.HF6                  DATE 13-Sep-2023 TIME 16:00:16
 SUMMARY OF JOB INFORMATION:
 STEP  INC ATT SEVERE EQUIL TOTAL  TOTAL      STEP       INC OF       DOF    IF
               DISCON ITERS ITERS  TIME/    TIME/LPF    TIME/LPF    MONITOR RIKS
               ITERS               FREQ
   1     1   1     0     2     2  0.100      0.100      0.1000    
   1     2   1     0     2     2  0.200      0.200      0.1000    
   1     3   1     0     1     1  0.300      0.300      0.1000    
   1     4   1     0     2     2  0.400      0.400      0.1000    
   1     5   1     0     3     3  0.500      0.500      0.1000    
   1     6   1U    0     1     1  0.500      0.500      0.1000    
   1     6   2     0     3     3  0.550      0.550      0.05000   
   1     7   1     0     2     2  0.600      0.600      0.05000   
   1     8   1U    0     1     1  0.600      0.600      0.1000    
   1     8   2U    0     2     2  0.600      0.600      0.05000   
   1     8   3     0     2     2  0.625      0.625      0.02500   
   1     9   1     0     2     2  0.663      0.663      0.03750   
   1    10   1     0     2     2  0.700      0.700      0.03750   
   1    11   1     0     4     4  0.800      0.800      0.1000    
   1    12   1U    0     1     1  0.800      0.800      0.1000    
   1    12   2U    0     3     3  0.800      0.800      0.05000   
   1    12   3     0     3     3  0.825      0.825      0.02500   
   1    13   1     0     2     2  0.863      0.863      0.03750   
   1    14   1     0     2     2  0.900      0.900      0.03750   
   1    15   1U    0     1     1  0.900      0.900      0.1000    
   1    15   2     0     2     2  0.950      0.950      0.05000   
   1    16   1     0     2     2  1.00       1.00       0.05000   
   1    17   1U    0     1     1  1.00       1.00       0.1000    
   1    17   2     0     2     2  1.05       1.05       0.05000   
   1    18   1     0     2     2  1.10       1.10       0.05000   
   1    19   1     0     2     2  1.20       1.20       0.1000    
   1    20   1U    0     1     1  1.20       1.20       0.1000    
   1    20   2U    0     1     1  1.20       1.20       0.05000   
   1    20   3     0     2     2  1.23       1.23       0.02500   
   1    21   1     0     2     2  1.26       1.26       0.03750   
   1    22   1     0     2     2  1.30       1.30       0.03750   
   1    23   1     0     2     2  1.36       1.36       0.05625   
   1    24   1     0     2     2  1.40       1.40       0.04375   
   1    25   1U    0     1     1  1.40       1.40       0.1000    
   1    25   2     0     2     2  1.45       1.45       0.05000   
   1    26   1     0     2     2  1.50       1.50       0.05000   
   1    27   1     0     2     2  1.57       1.57       0.07500   
   1    28   1     0     2     2  1.60       1.60       0.02500   
   1    29   1     0     3     3  1.70       1.70       0.1000    
   1    30   1     0     2     2  1.80       1.80       0.1000    
   1    31   1     0     3     3  1.90       1.90       0.1000    
   1    32   1     0     2     2  2.00       2.00       0.1000    
   1    33   1     0     2     2  2.10       2.10       0.1000    
   1    34   1     0     2     2  2.20       2.20       0.1000    
   1    35   1     0     2     2  2.30       2.30       0.1000    
   1    36   1     0     3     3  2.40       2.40       0.1000    
   1    37   1     0     2     2  2.50       2.50       0.1000    
   1    38   1     0     2     2  2.60       2.60       0.1000    
   1    39   1     0     2     2  2.70       2.70       0.1000    
   1    40   1     0     2     2  2.80       2.80       0.1000    
   1    41   1     0     2     2  2.90       2.90       0.1000    
   1    42   1     0     2     2  3.00       3.00       0.1000    
   1    43   1     0     2     2  3.10       3.10       0.1000    
   1    44   1     0     2     2  3.20       3.20       0.1000    
   1    45   1     0     2     2  3.30       3.30       0.1000    
   1    46   1     0     2     2  3.40       3.40       0.1000    
   1    47   1     0     2     2  3.50       3.50       0.1000    
   1    48   1     0     3     3  3.60       3.60       0.1000    
   1    49   1     0     2     2  3.70       3.70       0.1000    
   1    50   1     0     1     1  3.80       3.80       0.1000    
   1    51   1     0     2     2  3.90       3.90       0.1000    
   1    52   1     0     2     2  4.00       4.00       0.1000    
   1    53   1     0     1     1  4.10       4.10       0.1000    
   1    54   1     0     2     2  4.20       4.20       0.1000    
   1    55   1     0     2     2  4.30       4.30       0.1000    
   1    56   1     0     2     2  4.40       4.40       0.1000    
   1    57   1     0     2     2  4.50       4.50       0.1000    
   1    58   1     0     2     2  4.60       4.60       0.1000    
   1    59   1     0     2     2  4.70       4.70       0.1000    
   1    60   1     0     1     1  4.80       4.80       0.1000    
   1    61   1     0     1     1  4.90       4.90       0.1000    
   1    62   1     0     3     3  5.00       5.00       0.1000    
   1    63   1U    0     1     1  5.00       5.00       0.1687    
   1    63   2U    0     1     1  5.00       5.00       0.08437   
   1    63   3U    0     1     1  5.00       5.00       0.04219   
   1    63   4     0     3     3  5.02       5.02       0.02109   
   1    64   1     0     2     2  5.05       5.05       0.03164   
   1    65   1     0     1     1  5.10       5.10       0.04746   
   1    66   1     0     1     1  5.17       5.17       0.07119   
   1    67   1     0     1     1  5.28       5.28       0.1068    
   1    68   1     0     2     2  5.44       5.44       0.1602    
   1    69   1     0     2     2  5.68       5.68       0.2403    
   1    70   1U    0     1     1  5.68       5.68       0.3604    
   1    70   2     0     2     2  5.86       5.86       0.1802    
   1    71   1     0     3     3  6.13       6.13       0.2703    
   1    72   1     0     4     4  6.53       6.53       0.4055    
   1    73   1     0     5     5  7.14       7.14       0.6082    
   1    74   1U    0     1     1  7.14       7.14       0.9123    
   1    74   2     0     3     3  7.60       7.60       0.4561    
   1    75   1U    0     1     1  7.60       7.60       0.6842    
   1    75   2     0     4     4  7.94       7.94       0.3421    
   1    76   1U    0     1     1  7.94       7.94       0.5132    
   1    76   2U    0     1     1  7.94       7.94       0.2566    
   1    76   3     0     2     2  8.07       8.07       0.1283    
   1    77   1     0     2     2  8.26       8.26       0.1924    
   1    78   1U    0     1     1  8.26       8.26       0.2887    
   1    78   2U    0     1     1  8.26       8.26       0.1443    
   1    78   3U    0     1     1  8.26       8.26       0.07216   
   1    78   4     0     1     1  8.30       8.30       0.03608   
   1    79   1     0     2     2  8.35       8.35       0.05412   
   1    80   1U    0     1     1  8.35       8.35       0.08118   
   1    80   2     0     2     2  8.39       8.39       0.04059   
   1    81   1U    0     1     1  8.39       8.39       0.06089   
   1    81   2     0     2     2  8.42       8.42       0.03044   
   1    82   1     0     2     2  8.47       8.47       0.04567   
   1    83   1U    0     1     1  8.47       8.47       0.06850   
   1    83   2     0     2     2  8.50       8.50       0.03425   
   1    84   1U    0     1     1  8.50       8.50       0.05137   
   1    84   2     0     2     2  8.53       8.53       0.02569   
   1    85   1     0     2     2  8.57       8.57       0.03853   
   1    86   1U    0     1     1  8.57       8.57       0.05780   
   1    86   2     0     2     2  8.60       8.60       0.02890   
   1    87   1     0     2     2  8.64       8.64       0.04335   
   1    88   1U    0     1     1  8.64       8.64       0.06502   
   1    88   2     0     2     2  8.67       8.67       0.03251   
   1    89   1     0     2     2  8.72       8.72       0.04876   
   1    90   1U    0     1     1  8.72       8.72       0.07315   
   1    90   2     0     2     2  8.76       8.76       0.03657   
   1    91   1     0     2     2  8.81       8.81       0.05486   
   1    92   1U    0     1     1  8.81       8.81       0.08229   
   1    92   2     0     2     2  8.85       8.85       0.04115   
   1    93   1     0     2     2  8.91       8.91       0.06172   
   1    94   1U    0     1     1  8.91       8.91       0.09258   
   1    94   2     0     2     2  8.96       8.96       0.04629   
   1    95   1U    0     1     1  8.96       8.96       0.06943   
   1    95   2     0     2     2  9.00       9.00       0.03472   
   1    96   1     0     2     2  9.05       9.05       0.05207   
   1    97   1U    0     1     1  9.05       9.05       0.07811   
   1    97   2     0     2     2  9.09       9.09       0.03906   
   1    98   1     0     2     2  9.15       9.15       0.05858   
   1    99   1U    0     1     1  9.15       9.15       0.08788   
   1    99   2     0     2     2  9.19       9.19       0.04394   
   1   100   1     0     2     2  9.26       9.26       0.06591   
   1   101   1U    0     1     1  9.26       9.26       0.09886   
   1   101   2     0     2     2  9.30       9.30       0.04943   
   1   102   1U    0     1     1  9.30       9.30       0.07415   
   1   102   2     0     2     2  9.34       9.34       0.03707   
   1   103   1     0     2     2  9.40       9.40       0.05561   
   1   104   1     0     2     2  9.48       9.48       0.08341   
   1   105   1U    0     1     1  9.48       9.48       0.1251    
   1   105   2     0     2     2  9.54       9.54       0.06256   
   1   106   1     0     2     2  9.64       9.64       0.09384   
   1   107   1U    0     1     1  9.64       9.64       0.1408    
   1   107   2     0     2     2  9.71       9.71       0.07038   
   1   108   1     0     2     2  9.81       9.81       0.1056    
   1   109   1U    0     1     1  9.81       9.81       0.1584    
   1   109   2     0     2     2  9.89       9.89       0.07918   
   1   110   1     0     2     2  10.0       10.0       0.1188    
   1   111   1U    0     1     1  10.0       10.0       0.1781    
   1   111   2     0     2     2  10.1       10.1       0.08907   
   1   112   1     0     2     2  10.2       10.2       0.1336    
   1   113   1U    0     1     1  10.2       10.2       0.2004    
   1   113   2     0     2     2  10.3       10.3       0.1002    
   1   114   1U    0     1     1  10.3       10.3       0.1503    
   1   114   2     0     2     2  10.4       10.4       0.07516   
   1   115   1     0     2     2  10.5       10.5       0.1127    
   1   116   1     0     2     2  10.7       10.7       0.1691    
   1   117   1     0     3     3  10.9       10.9       0.2537    
   1   118   1U    0     1     1  10.9       10.9       0.3805    
   1   118   2     0     2     2  11.1       11.1       0.1902    
   1   119   1     0     3     3  11.4       11.4       0.2854    
   1   120   1     0     4     4  11.8       11.8       0.4280    
   1   121   1     0     4     4  12.5       12.5       0.6421    
   1   122   1U    0     1     1  12.5       12.5       0.9631    
   1   122   2     0     4     4  13.0       13.0       0.4815    
   1   123   1U    0     1     1  13.0       13.0       0.7223    
   1   123   2U    0     1     1  13.0       13.0       0.3612    
   1   123   3     0     2     2  13.2       13.2       0.1806    
   1   124   1U    0     1     1  13.2       13.2       0.2709    
   1   124   2     0     2     2  13.3       13.3       0.1354    
   1   125   1U    0     1     1  13.3       13.3       0.2032    
   1   125   2     0     2     2  13.4       13.4       0.1016    
   1   126   1U    0     1     1  13.4       13.4       0.1524    
   1   126   2U    0     1     1  13.4       13.4       0.07618   
   1   126   3     0     1     1  13.4       13.4       0.03809   
   1   127   1     0     2     2  13.5       13.5       0.05714   
   1   128   1U    0     1     1  13.5       13.5       0.08570   
   1   128   2     0     2     2  13.5       13.5       0.04285   
   1   129   1U    0     1     1  13.5       13.5       0.06428   
   1   129   2     0     2     2  13.6       13.6       0.03214   
   1   130   1     0     2     2  13.6       13.6       0.04821   
   1   131   1U    0     1     1  13.6       13.6       0.07231   
   1   131   2     0     2     2  13.6       13.6       0.03616   
   1   132   1     0     2     2  13.7       13.7       0.05424   
   1   133   1U    0     1     1  13.7       13.7       0.08135   
   1   133   2     0     2     2  13.7       13.7       0.04068   
   1   134   1     0     2     2  13.8       13.8       0.06101   
   1   135   1U    0     1     1  13.8       13.8       0.09152   
   1   135   2     0     2     2  13.8       13.8       0.04576   
   1   136   1U    0     1     1  13.8       13.8       0.06864   
   1   136   2     0     2     2  13.9       13.9       0.03432   
   1   137   1     0     2     2  13.9       13.9       0.05148   
   1   138   1U    0     1     1  13.9       13.9       0.07722   
   1   138   2     0     2     2  14.0       14.0       0.03861   
   1   139   1     0     2     2  14.0       14.0       0.05792   
   1   140   1U    0     1     1  14.0       14.0       0.08687   
   1   140   2     0     2     2  14.1       14.1       0.04344   
   1   141   1U    0     2     2  14.1       14.1       0.06516   
   1   141   2     0     2     2  14.1       14.1       0.03258   
   1   142   1     0     2     2  14.2       14.2       0.04887   
   1   143   1U    0     1     1  14.2       14.2       0.07330   
   1   143   2     0     2     2  14.2       14.2       0.03665   
   1   144   1     0     2     2  14.2       14.2       0.05498   
   1   145   1U    0     1     1  14.2       14.2       0.08246   
   1   145   2     0     2     2  14.3       14.3       0.04123   
   1   146   1     0     2     2  14.3       14.3       0.06185   
   1   147   1U    0     1     1  14.3       14.3       0.09277   
   1   147   2     0     2     2  14.4       14.4       0.04639   
   1   148   1     0     2     2  14.5       14.5       0.06958   
   1   149   1U    0     1     1  14.5       14.5       0.1044    
   1   149   2     0     2     2  14.5       14.5       0.05218   
   1   150   1     0     2     2  14.6       14.6       0.07828   
   1   151   1U    0     1     1  14.6       14.6       0.1174    
   1   151   2     0     2     2  14.7       14.7       0.05871   
   1   152   1     0     2     2  14.7       14.7       0.08806   
   1   153   1U    0     1     1  14.7       14.7       0.1321    
   1   153   2     0     2     2  14.8       14.8       0.06604   
   1   154   1     0     2     2  14.9       14.9       0.09907   
   1   155   1U    0     1     1  14.9       14.9       0.1486    
   1   155   2     0     2     2  15.0       15.0       0.07430   
   1   156   1     0     2     2  15.1       15.1       0.1115    
   1   157   1U    0     1     1  15.1       15.1       0.1672    
   1   157   2     0     2     2  15.2       15.2       0.08359   
   1   158   1     0     2     2  15.3       15.3       0.1254    
   1   159   1     0     2     2  15.5       15.5       0.1881    
   1   160   1U    0     1     1  15.5       15.5       0.2821    
   1   160   2     0     2     2  15.6       15.6       0.1411    
   1   161   1     0     3     3  15.8       15.8       0.2116    
   1   162   1U    0     1     1  15.8       15.8       0.3174    
   1   162   2     0     2     2  16.0       16.0       0.1587    
   1   163   1     0     3     3  16.2       16.2       0.2380    
   1   164   1     0     4     4  16.6       16.6       0.3570    
   1   165   1     0     4     4  17.1       17.1       0.5356    
   1   166   1     0     4     4  17.9       17.9       0.8033    
   1   167   1U    0     1     1  17.9       17.9       1.205     
   1   167   2U    0     1     1  17.9       17.9       0.6025    
   1   167   3     0     3     3  18.2       18.2       0.3013    
   1   168   1U    0     1     1  18.2       18.2       0.4519    
   1   168   2     0     2     2  18.5       18.5       0.2259    
   1   169   1U    0     1     1  18.5       18.5       0.3389    
   1   169   2U    0     1     1  18.5       18.5       0.1695    
   1   169   3     0     2     2  18.5       18.5       0.08473   
   1   170   1U    0     1     1  18.5       18.5       0.1271    
   1   170   2     0     2     2  18.6       18.6       0.06355   
   1   171   1U    0     1     1  18.6       18.6       0.09532   
   1   171   2     0     2     2  18.7       18.7       0.04766   
   1   172   1U    0     1     1  18.7       18.7       0.07149   
   1   172   2     0     2     2  18.7       18.7       0.03574   
   1   173   1     0     2     2  18.7       18.7       0.05362   
   1   174   1U    0     1     1  18.7       18.7       0.08043   
   1   174   2     0     2     2  18.8       18.8       0.04021   
   1   175   1     0     2     2  18.8       18.8       0.06032   
   1   176   1U    0     1     1  18.8       18.8       0.09048   
   1   176   2     0     2     2  18.9       18.9       0.04524   
   1   177   1     0     2     2  19.0       19.0       0.06786   
   1   178   1U    0     1     1  19.0       19.0       0.1018    
   1   178   2     0     2     2  19.0       19.0       0.05089   
   1   179   1U    0     1     1  19.0       19.0       0.07634   
   1   179   2     0     2     2  19.0       19.0       0.03817   
   1   180   1     0     2     2  19.1       19.1       0.05726   
   1   181   1U    0     1     1  19.1       19.1       0.08588   
   1   181   2     0     2     2  19.1       19.1       0.04294   
   1   182   1U    0     1     1  19.1       19.1       0.06441   
   1   182   2     0     2     2  19.2       19.2       0.03221   
   1   183   1     0     2     2  19.2       19.2       0.04831   
   1   184   1     0     2     2  19.3       19.3       0.07246   
   1   185   1U    0     1     1  19.3       19.3       0.1087    
   1   185   2     0     2     2  19.4       19.4       0.05435   
   1   186   1     0     2     2  19.4       19.4       0.08152   
   1   187   1U    0     1     1  19.4       19.4       0.1223    
   1   187   2     0     2     2  19.5       19.5       0.06114   
   1   188   1     0     2     2  19.6       19.6       0.09171   
   1   189   1U    0     1     1  19.6       19.6       0.1376    
   1   189   2     0     2     2  19.7       19.7       0.06878   
   1   190   1     0     2     2  19.8       19.8       0.1032    
   1   191   1U    0     1     1  19.8       19.8       0.1548    
   1   191   2     0     2     2  19.8       19.8       0.07738   
   1   192   1     0     2     2  20.0       20.0       0.1161    
   1   193   1U    0     1     1  20.0       20.0       0.1741    
   1   193   2     0     2     2  20.0       20.0       0.08706   
   1   194   1     0     2     2  20.2       20.2       0.1306    
   1   195   1U    0     1     1  20.2       20.2       0.1959    
   1   195   2     0     1     1  20.3       20.3       0.09794   
   1   196   1     0     2     2  20.4       20.4       0.1469    
   1   197   1U    0     1     1  20.4       20.4       0.2204    
   1   197   2     0     2     2  20.5       20.5       0.1102    
   1   198   1     0     2     2  20.7       20.7       0.1653    
   1   199   1U    0     1     1  20.7       20.7       0.2479    
   1   199   2     0     2     2  20.8       20.8       0.1240    
   1   200   1     0     2     2  21.0       21.0       0.1859    
   1   201   1     0     3     3  21.3       21.3       0.2789    
   1   202   1     0     4     4  21.7       21.7       0.4183    
   1   203   1     0     4     4  22.3       22.3       0.6275    
   1   204   1U    0     1     1  22.3       22.3       0.9413    
   1   204   2     0     4     4  22.8       22.8       0.4706    
   1   205   1U    0     1     1  22.8       22.8       0.7059    
   1   205   2     0     3     3  23.2       23.2       0.3530    
   1   206   1U    0     1     1  23.2       23.2       0.5295    
   1   206   2     0     2     2  23.4       23.4       0.2647    
   1   207   1U    0     1     1  23.4       23.4       0.3971    
   1   207   2U    0     1     1  23.4       23.4       0.1985    
   1   207   3     0     2     2  23.5       23.5       0.09927   
   1   208   1U    0     1     1  23.5       23.5       0.1489    
   1   208   2     0     2     2  23.6       23.6       0.07446   
   1   209   1U    0     1     1  23.6       23.6       0.1117    
   1   209   2     0     2     2  23.6       23.6       0.05584   
   1   210   1U    0     1     1  23.6       23.6       0.08376   
   1   210   2     0     2     2  23.7       23.7       0.04188   
   1   211   1U    0     1     1  23.7       23.7       0.06282   
   1   211   2     0     2     2  23.7       23.7       0.03141   
   1   212   1     0     2     2  23.8       23.8       0.04712   
   1   213   1U    0     1     1  23.8       23.8       0.07067   
   1   213   2     0     2     2  23.8       23.8       0.03534   
   1   214   1     0     2     2  23.9       23.9       0.05301   
   1   215   1U    0     1     1  23.9       23.9       0.07951   
   1   215   2     0     2     2  23.9       23.9       0.03975   
   1   216   1     0     2     2  24.0       24.0       0.05963   
   1   217   1U    0     1     1  24.0       24.0       0.08945   
   1   217   2     0     2     2  24.0       24.0       0.04472   
   1   218   1     0     2     2  24.1       24.1       0.06709   
   1   219   1U    0     1     1  24.1       24.1       0.1006    
   1   219   2     0     2     2  24.1       24.1       0.05031   
   1   220   1U    0     1     1  24.1       24.1       0.07547   
   1   220   2     0     2     2  24.2       24.2       0.03774   
   1   221   1     0     2     2  24.2       24.2       0.05660   
   1   222   1U    0     1     1  24.2       24.2       0.08491   
   1   222   2     0     2     2  24.3       24.3       0.04245   
   1   223   1     0     2     2  24.3       24.3       0.06368   
   1   224   1U    0     1     1  24.3       24.3       0.09552   
   1   224   2     0     2     2  24.4       24.4       0.04776   
   1   225   1     0     2     2  24.4       24.4       0.07164   
   1   226   1U    0     1     1  24.4       24.4       0.1075    
   1   226   2     0     2     2  24.5       24.5       0.05373   
   1   227   1     0     2     2  24.6       24.6       0.08059   
   1   228   1U    0     1     1  24.6       24.6       0.1209    
   1   228   2     0     2     2  24.6       24.6       0.06045   
   1   229   1     0     2     2  24.7       24.7       0.09067   
   1   230   1U    0     1     1  24.7       24.7       0.1360    
   1   230   2     0     2     2  24.8       24.8       0.06800   
   1   231   1     0     2     2  24.9       24.9       0.1020    
   1   232   1U    0     1     1  24.9       24.9       0.1530    
   1   232   2     0     2     2  25.0       25.0       0.07650   
   1   233   1     0     2     2  25.1       25.1       0.1148    
   1   234   1U    0     1     1  25.1       25.1       0.1721    
   1   234   2     0     2     2  25.2       25.2       0.08606   
   1   235   1     0     2     2  25.3       25.3       0.1291    
   1   236   1U    0     1     1  25.3       25.3       0.1936    
   1   236   2     0     2     2  25.4       25.4       0.09682   
   1   237   1     0     2     2  25.5       25.5       0.1452    
   1   238   1U    0     1     1  25.5       25.5       0.2178    
   1   238   2     0     2     2  25.7       25.7       0.1089    
   1   239   1     0     2     2  25.8       25.8       0.1634    
   1   240   1U    0     3     3  25.8       25.8       0.2451    
   1   240   2     0     2     2  25.9       25.9       0.1225    
   1   241   1     0     2     2  26.1       26.1       0.1838    
   1   242   1     0     3     3  26.4       26.4       0.2757    
   1   243   1     0     4     4  26.8       26.8       0.4136    
   1   244   1     0     4     4  27.4       27.4       0.6204    
   1   245   1U    0     1     1  27.4       27.4       0.9305    
   1   245   2     0     4     4  27.9       27.9       0.4653    
   1   246   1U    0     1     1  27.9       27.9       0.6979    
   1   246   2     0     2     2  28.2       28.2       0.3490    
   1   247   1U    0     1     1  28.2       28.2       0.5234    
   1   247   2     0     2     2  28.5       28.5       0.2617    
   1   248   1U    0     1     1  28.5       28.5       0.3926    
   1   248   2U    0     1     1  28.5       28.5       0.1963    
   1   248   3U    0     1     1  28.5       28.5       0.09814   
   1   248   4     0     2     2  28.6       28.6       0.04907   
   1   249   1     0     2     2  28.6       28.6       0.07361   
   1   250   1U    0     1     1  28.6       28.6       0.1104    
   1   250   2     0     2     2  28.7       28.7       0.05521   
   1   251   1U    0     1     1  28.7       28.7       0.08281   
   1   251   2     0     2     2  28.7       28.7       0.04140   
   1   252   1     0     2     2  28.8       28.8       0.06211   
   1   253   1U    0     1     1  28.8       28.8       0.09316   
   1   253   2     0     2     2  28.8       28.8       0.04658   
   1   254   1     0     2     2  28.9       28.9       0.06987   
   1   255   1U    0     1     1  28.9       28.9       0.1048    
   1   255   2     0     2     2  29.0       29.0       0.05240   
   1   256   1U    0     1     1  29.0       29.0       0.07860   
   1   256   2     0     2     2  29.0       29.0       0.03930   
   1   257   1     0     2     2  29.1       29.1       0.05895   
   1   258   1U    0     1     1  29.1       29.1       0.08843   
   1   258   2     0     2     2  29.1       29.1       0.04421   
   1   259   1     0     2     2  29.2       29.2       0.06632   
   1   260   1U    0     1     1  29.2       29.2       0.09948   
   1   260   2     0     2     2  29.2       29.2       0.04974   
   1   261   1U    0     1     1  29.2       29.2       0.07461   
   1   261   2     0     2     2  29.3       29.3       0.03731   
   1   262   1     0     2     2  29.3       29.3       0.05596   
   1   263   1     0     2     2  29.4       29.4       0.08394   
   1   264   1U    0     1     1  29.4       29.4       0.1259    
   1   264   2     0     2     2  29.5       29.5       0.06295   
   1   265   1U    0     1     1  29.5       29.5       0.09443   
   1   265   2     0     2     2  29.5       29.5       0.04721   
   1   266   1     0     2     2  29.6       29.6       0.07082   
   1   267   1U    0     1     1  29.6       29.6       0.1062    
   1   267   2     0     2     2  29.6       29.6       0.05312   
   1   268   1     0     2     2  29.7       29.7       0.07968   
   1   269   1U    0     1     1  29.7       29.7       0.1195    
   1   269   2     0     2     2  29.8       29.8       0.05976   
   1   270   1     0     2     2  29.9       29.9       0.08963   
   1   271   1U    0     1     1  29.9       29.9       0.1345    
   1   271   2     0     2     2  29.9       29.9       0.06723   
   1   272   1     0     2     2  30.0       30.0       0.1008    
   1   273   1     0     2     2  30.2       30.2       0.1513    
   1   274   1U    0     1     1  30.2       30.2       0.2269    
   1   274   2     0     2     2  30.3       30.3       0.1134    
   1   275   1U    0     1     1  30.3       30.3       0.1702    
   1   275   2     0     2     2  30.4       30.4       0.08508   
   1   276   1     0     2     2  30.5       30.5       0.1276    
   1   277   1U    0     1     1  30.5       30.5       0.1914    
   1   277   2     0     2     2  30.6       30.6       0.09572   
   1   278   1     0     2     2  30.7       30.7       0.1436    
   1   279   1     0     3     3  31.0       31.0       0.2154    
   1   280   1U    0     1     1  31.0       31.0       0.3230    
   1   280   2     0     2     2  31.1       31.1       0.1615    
   1   281   1     0     3     3  31.4       31.4       0.2423    
   1   282   1     0     4     4  31.7       31.7       0.3634    
   1   283   1     0     4     4  32.3       32.3       0.5451    
   1   284   1     0     4     4  33.1       33.1       0.8177    
   1   285   1U    0     1     1  33.1       33.1       1.227     
   1   285   2U    0     1     1  33.1       33.1       0.6133    
   1   285   3     0     2     2  33.4       33.4       0.3066    
   1   286   1U    0     1     1  33.4       33.4       0.4600    
   1   286   2U    0     1     1  33.4       33.4       0.2300    
   1   286   3     0     2     2  33.5       33.5       0.1150    
   1   287   1U    0     1     1  33.5       33.5       0.1725    
   1   287   2     0     2     2  33.6       33.6       0.08624   
   1   288   1U    0     1     1  33.6       33.6       0.1294    
   1   288   2     0     2     2  33.7       33.7       0.06468   
   1   289   1U    0     1     1  33.7       33.7       0.09702   
   1   289   2     0     2     2  33.7       33.7       0.04851   
   1   290   1U    0     1     1  33.7       33.7       0.07277   
   1   290   2     0     2     2  33.7       33.7       0.03638   
   1   291   1     0     2     2  33.8       33.8       0.05458   
   1   292   1U    0     1     1  33.8       33.8       0.08186   
   1   292   2     0     2     2  33.8       33.8       0.04093   
   1   293   1     0     2     2  33.9       33.9       0.06140   
   1   294   1U    0     1     1  33.9       33.9       0.09210   
   1   294   2     0     2     2  33.9       33.9       0.04605   
   1   295   1     0     2     2  34.0       34.0       0.06907   
   1   296   1U    0     1     1  34.0       34.0       0.1036    
   1   296   2     0     2     2  34.1       34.1       0.05180   
   1   297   1U    0     1     1  34.1       34.1       0.07771   
   1   297   2     0     2     2  34.1       34.1       0.03885   
   1   298   1     0     2     2  34.2       34.2       0.05828   
   1   299   1U    0     1     1  34.2       34.2       0.08742   
   1   299   2     0     2     2  34.2       34.2       0.04371   
   1   300   1     0     2     2  34.3       34.3       0.06557   
   1   301   1U    0     1     1  34.3       34.3       0.09835   
   1   301   2     0     2     2  34.3       34.3       0.04917   
   1   302   1U    0     2     2  34.3       34.3       0.07376   
   1   302   2     0     2     2  34.4       34.4       0.03688   
   1   303   1     0     2     2  34.4       34.4       0.05532   
   1   304   1     0     2     2  34.5       34.5       0.08298   
   1   305   1U    0     1     1  34.5       34.5       0.1245    
   1   305   2     0     2     2  34.6       34.6       0.06224   
   1   306   1     0     2     2  34.7       34.7       0.09335   
   1   307   1U    0     1     1  34.7       34.7       0.1400    
   1   307   2     0     2     2  34.7       34.7       0.07002   
   1   308   1     0     2     2  34.8       34.8       0.1050    
   1   309   1U    0     1     1  34.8       34.8       0.1575    
   1   309   2     0     2     2  34.9       34.9       0.07877   
   1   310   1U    0     1     1  34.9       34.9       0.1182    
   1   310   2     0     1     1  35.0       35.0       0.05908   
   1   311   1     0     2     2  35.1       35.1       0.08861   
   1   312   1     0     2     2  35.2       35.2       0.1329    
   1   313   1U    0     1     1  35.2       35.2       0.1994    
   1   313   2     0     2     2  35.3       35.3       0.09969   
   1   314   1     0     2     2  35.4       35.4       0.1495    
   1   315   1     0     3     3  35.7       35.7       0.2243    
   1   316   1U    0     1     1  35.7       35.7       0.3365    
   1   316   2     0     2     2  35.8       35.8       0.1682    
   1   317   1     0     3     3  36.1       36.1       0.2523    
   1   318   1U    0     1     1  36.1       36.1       0.3785    
   1   318   2     0     3     3  36.3       36.3       0.1893    
   1   319   1     0     3     3  36.6       36.6       0.2839    
   1   320   1     0     4     4  37.0       37.0       0.4258    
   1   321   1     0     4     4  37.6       37.6       0.6387    
   1   322   1U    0     1     1  37.6       37.6       0.9581    
   1   322   2     0     4     4  38.1       38.1       0.4790    
   1   323   1U    0     1     1  38.1       38.1       0.7186    
   1   323   2     0     2     2  38.5       38.5       0.3593    
   1   324   1U    0     1     1  38.5       38.5       0.5389    
   1   324   2U    0     1     1  38.5       38.5       0.2695    
   1   324   3     0     2     2  38.6       38.6       0.1347    
   1   325   1U    0     1     1  38.6       38.6       0.2021    
   1   325   2U    0     1     1  38.6       38.6       0.1010    
   1   325   3     0     2     2  38.6       38.6       0.05052   
   1   326   1U    0     2     2  38.6       38.6       0.07579   
   1   326   2     0     1     1  38.7       38.7       0.03789   
   1   327   1     0     2     2  38.7       38.7       0.05684   
   1   328   1U    0     1     1  38.7       38.7       0.08526   
   1   328   2     0     2     2  38.8       38.8       0.04263   
   1   329   1     0     2     2  38.8       38.8       0.06395   
   1   330   1U    0     1     1  38.8       38.8       0.09592   
   1   330   2     0     2     2  38.9       38.9       0.04796   
   1   331   1U    0     1     1  38.9       38.9       0.07194   
   1   331   2     0     2     2  38.9       38.9       0.03597   
   1   332   1     0     2     2  39.0       39.0       0.05395   
   1   333   1U    0     1     1  39.0       39.0       0.08093   
   1   333   2     0     2     2  39.0       39.0       0.04047   
   1   334   1     0     2     2  39.1       39.1       0.06070   
   1   335   1U    0     1     1  39.1       39.1       0.09105   
   1   335   2     0     2     2  39.1       39.1       0.04552   
   1   336   1     0     2     2  39.2       39.2       0.06829   
   1   337   1U    0     1     1  39.2       39.2       0.1024    
   1   337   2     0     2     2  39.2       39.2       0.05121   
   1   338   1     0     2     2  39.3       39.3       0.07682   
   1   339   1U    0     1     1  39.3       39.3       0.1152    
   1   339   2     0     2     2  39.4       39.4       0.05762   
   1   340   1U    0     1     1  39.4       39.4       0.08642   
   1   340   2     0     2     2  39.4       39.4       0.04321   
   1   341   1U    0     1     1  39.4       39.4       0.06482   
   1   341   2U    0     1     1  39.4       39.4       0.03241   
   1   341   3U    0     1     1  39.4       39.4       0.01620   
   1   341   4     0     1     1  39.4       39.4       0.008102  
   1   342   1U    0     1     1  39.4       39.4       0.01215   
   1   342   2U    0     1     1  39.4       39.4       0.006077  
   1   342   3U    0     1     1  39.4       39.4       0.003038  
   1   342   4U    0     1     1  39.4       39.4       0.001519  
   1   342   5U    0     1     1  39.4       39.4       0.0007596 
   1   342   6     0     2     2  39.4       39.4       0.0003798 
   1   343   1U    0     1     1  39.4       39.4       0.0005697 
   1   343   2U    0     1     1  39.4       39.4       0.0002848 
   1   343   3     0     1     1  39.4       39.4       0.0001424 
   1   344   1U    0     1     1  39.4       39.4       0.0002136 
   1   344   2     0     1     1  39.4       39.4       0.0001068 
   1   345   1U    0     1     1  39.4       39.4       0.0001602 
   1   345   2U    0     1     1  39.4       39.4       8.011e-05 
   1   345   3U    0     1     1  39.4       39.4       4.006e-05 
   1   345   4U    0     1     1  39.4       39.4       2.003e-05 
   1   345   5     0     1     1  39.4       39.4       1.001e-05 
   1   346   1U    0     1     1  39.4       39.4       1.502e-05 
   1   346   2U    0     1     1  39.4       39.4       7.511e-06 
   1   346   3U    0     1     1  39.4       39.4       3.755e-06 
   1   346   4     0     1     1  39.4       39.4       1.878e-06 
   1   347   1U    0     1     1  39.4       39.4       2.816e-06 
   1   347   2U    0     1     1  39.4       39.4       1.408e-06 
   1   347   3     0     1     1  39.4       39.4       7.041e-07 
   1   348   1U    0     1     1  39.4       39.4       1.056e-06 
   1   348   2U    0     1     1  39.4       39.4       5.281e-07 
   1   348   3     0     1     1  39.4       39.4       2.640e-07 
   1   349   1U    0     1     1  39.4       39.4       3.961e-07 
   1   349   2U    0     1     1  39.4       39.4       1.980e-07 
   1   349   3U    0     1     1  39.4       39.4       9.902e-08 
   1   349   4U    0     1     1  39.4       39.4       4.951e-08 
   1   349   5     0     1     1  39.4       39.4       2.475e-08 
   1   350   1U    0     1     1  39.4       39.4       3.713e-08 
   1   350   2U    0     1     1  39.4       39.4       1.857e-08 
   1   350   3U    0     1     1  39.4       39.4       9.283e-09 
   1   350   4     0     1     1  39.4       39.4       4.641e-09 
   1   351   1U    0     1     1  39.4       39.4       6.962e-09 
   1   351   2U    0     1     1  39.4       39.4       3.481e-09 
   1   351   3     0     1     1  39.4       39.4       1.741e-09 
   1   352   1U    0     1     1  39.4       39.4       2.611e-09 
   1   352   2     0     1     1  39.4       39.4       1.305e-09 
   1   353   1U    0     1     1  39.4       39.4       1.958e-09 
   1   353   2     0     1     1  39.4       39.4       9.790e-10 
   1   354   1U    0     1     1  39.4       39.4       1.469e-09 
   1   354   2U    0     1     1  39.4       39.4       7.343e-10 
   1   354   3U    0     1     1  39.4       39.4       3.671e-10 
   1   354   4U    0     1     1  39.4       39.4       1.836e-10 
   1   354   5U    0     1     1  39.4       39.4       9.178e-11 
   1   354   6U    0     1     1  39.4       39.4       4.589e-11 
   1   354   7U    0     1     1  39.4       39.4       2.295e-11 
   1   354   8U    0     1     1  39.4       39.4       1.147e-11 
   1   354   9U    0     1     1  39.4       39.4       5.737e-12 
   1   354  10U    0     1     1  39.4       39.4       2.868e-12 
   1   354  11U    0     1     1  39.4       39.4       1.434e-12 
   1   354  12U    0     1     1  39.4       39.4       7.171e-13 
   1   354  13U    0     1     1  39.4       39.4       3.585e-13 
   1   354  14U    0     1     1  39.4       39.4       1.793e-13 
   1   354  15U    0     1     1  39.4       39.4       8.963e-14 
   1   354  16U    0     1     1  39.4       39.4       4.482e-14 
   1   354  17U    0     1     1  39.4       39.4       2.241e-14 
   1   354  18U    0     1     1  39.4       39.4       1.120e-14 
   1   354  19U    0     1     1  39.4       39.4       5.602e-15 
   1   354  20U    0     1     1  39.4       39.4       2.801e-15 
   1   354  21U    0     1     1  39.4       39.4       1.401e-15 
   1   354  22U    0     1     1  39.4       39.4       7.003e-16 
   1   354  23U    0     1     1  39.4       39.4       3.501e-16 
   1   354  24U    0     1     1  39.4       39.4       1.751e-16 
   1   354  25U    0     1     1  39.4       39.4       8.753e-17 
   1   354  26U    0     1     1  39.4       39.4       4.377e-17 
   1   354  27U    0     1     1  39.4       39.4       2.188e-17 
   1   354  28U    0     1     1  39.4       39.4       1.094e-17 
   1   354  29U    0     1     1  39.4       39.4       5.471e-18 
   1   354  30U    0     1     1  39.4       39.4       2.735e-18 
   1   354  31U    0     1     1  39.4       39.4       1.368e-18 
   1   354  32U    0     1     1  39.4       39.4       6.839e-19 
   1   354  33U    0     1     1  39.4       39.4       3.419e-19 
   1   354  34U    0     1     1  39.4       39.4       1.710e-19 
   1   354  35U    0     1     1  39.4       39.4       8.548e-20 
   1   354  36U    0     1     1  39.4       39.4       4.274e-20 
   1   354  37U    0     1     1  39.4       39.4       2.137e-20 
   1   354  38U    0     1     1  39.4       39.4       1.069e-20 
   1   354  39U    0     1     1  39.4       39.4       5.343e-21 
   1   354  40U    0     1     1  39.4       39.4       2.671e-21 
   1   354  41U    0     1     1  39.4       39.4       1.336e-21 
   1   354  42U    0     1     1  39.4       39.4       6.678e-22 
   1   354  43U    0     1     1  39.4       39.4       3.339e-22 
   1   354  44U    0     1     1  39.4       39.4       1.670e-22 
   1   354  45U    0     1     1  39.4       39.4       8.348e-23 
   1   354  46U    0     1     1  39.4       39.4       8.348e-23 
                          
 THE ANALYSIS HAS NOT BEEN COMPLETED
