1

   Abaqus 2022.HF6                                  Date 13-Sep-2023   Time 16:00:15
   For use by RWTH AACHEN UNIVERSITY under license from Dassault Systemes or its subsidiary.

                                                                                 
                                                                                 
 STEP    1     INCREMENT     1     STEP TIME    0.00    


                        S T E P       1     S T A T I C   A N A L Y S I S


                                                                                          

     AUTOMATIC TIME CONTROL WITH -
          A SUGGESTED INITIAL TIME INCREMENT OF                0.100    
          AND A TOTAL TIME PERIOD OF                            55.0    
          THE MINIMUM TIME INCREMENT ALLOWED IS                5.000-150
          THE MAXIMUM TIME INCREMENT ALLOWED IS                 55.0    

     LINEAR EQUATION SOLVER TYPE         ITERATIVE
     RELATIVE TOLERANCE OF CONVERGENCE   1.000E-05
     MAXIMUM NUMBER OF ITERATIONS        200

 CONVERGENCE TOLERANCE PARAMETERS FOR FORCE    
     CRITERION FOR RESIDUAL FORCE     FOR A NONLINEAR PROBLEM          5.000E-03
     CRITERION FOR DISP.    CORRECTION IN A NONLINEAR PROBLEM          1.000E-02
     INITIAL VALUE OF TIME AVERAGE FORCE                               1.000E-02
     AVERAGE FORCE     IS TIME AVERAGE FORCE    
     ALTERNATE CRIT. FOR RESIDUAL FORCE     FOR A NONLINEAR PROBLEM    2.000E-02
     CRITERION FOR ZERO FORCE     RELATIVE TO TIME AVRG. FORCE         1.000E-05
     CRITERION FOR RESIDUAL FORCE     WHEN THERE IS ZERO FLUX          1.000E-05
     CRITERION FOR DISP.    CORRECTION WHEN THERE IS ZERO FLUX         1.000E-03
     CRITERION FOR RESIDUAL FORCE     FOR A LINEAR INCREMENT           1.000E-08
     FIELD CONVERSION RATIO                                             1.00    
     CRITERION FOR ZERO FORCE     REL. TO TIME AVRG. MAX. FORCE        1.000E-05
     CRITERION FOR ZERO DISP.    RELATIVE TO CHARACTERISTIC LENGTH     1.000E-08

     VOLUMETRIC STRAIN COMPATIBILITY TOLERANCE FOR HYBRID SOLIDS       1.000E-05
     AXIAL STRAIN COMPATIBILITY TOLERANCE FOR HYBRID BEAMS             1.000E-05
     TRANS. SHEAR STRAIN COMPATIBILITY TOLERANCE FOR HYBRID BEAMS      1.000E-05
     SOFT CONTACT CONSTRAINT COMPATIBILITY TOLERANCE FOR P>P0          5.000E-03
     SOFT CONTACT CONSTRAINT COMPATIBILITY TOLERANCE FOR P=0.0         0.100    
     CONTACT FORCE ERROR TOLERANCE FOR CONVERT SDI=YES                 1.00    
     DISPLACEMENT COMPATIBILITY TOLERANCE FOR DCOUP ELEMENTS           1.000E-05
     ROTATION COMPATIBILITY TOLERANCE FOR DCOUP ELEMENTS               1.000E-05

 EQUILIBRIUM WILL BE CHECKED FOR SEVERE DISCONTINUITY ITERATIONS

 TIME INCREMENTATION CONTROL PARAMETERS:
 *** FIRST EQUILIBRIUM ITERATION FOR CONSECUTIVE DIVERGENCE CHECK             35
 *** EQUILIBRIUM ITERATION AT WHICH LOG. CONVERGENCE RATE CHECK BEGINS        15
     EQUILIBRIUM ITERATION AFTER WHICH ALTERNATE RESIDUAL IS USED              9
 *** MAXIMUM EQUILIBRIUM ITERATIONS ALLOWED                                   15
 *** EQUILIBRIUM ITERATION COUNT FOR CUT-BACK IN NEXT INCREMENT               28
 *** MAXIMUM EQUILIB. ITERS IN TWO INCREMENTS FOR TIME INCREMENT INCREASE      5
     MAXIMUM ITERATIONS FOR SEVERE DISCONTINUITIES                            50
 *** MAXIMUM ATTEMPTS ALLOWED IN AN INCREMENT                                 45
     MAXIMUM DISCON. ITERS IN TWO INCREMENTS FOR TIME INCREMENT INCREASE      50
     MAXIMUM CONTACT AUGMENTATIONS FOR *SURFACE BEHAVIOR,AUGMENTED LAGRANGE   50
     CUT-BACK FACTOR AFTER DIVERGENCE                                 0.2500    
     CUT-BACK FACTOR FOR TOO SLOW CONVERGENCE                         0.5000    
     CUT-BACK FACTOR AFTER TOO MANY EQUILIBRIUM ITERATIONS            0.7500    
     CUT-BACK FACTOR AFTER TOO MANY SEVERE DISCONTINUITY ITERATIONS   0.2500    
     CUT-BACK FACTOR AFTER PROBLEMS IN ELEMENT ASSEMBLY               0.2500    
     INCREASE FACTOR AFTER TWO INCREMENTS THAT CONVERGE QUICKLY        1.500    
     MAX. TIME INCREMENT INCREASE FACTOR ALLOWED                       1.500    
     MAX. TIME INCREMENT INCREASE FACTOR ALLOWED (DYNAMICS)            1.250    
     MAX. TIME INCREMENT INCREASE FACTOR ALLOWED (DIFFUSION)           2.000    
     MINIMUM TIME INCREMENT RATIO FOR EXTRAPOLATION TO OCCUR          0.1000    
     MAX. RATIO OF TIME INCREMENT TO STABILITY LIMIT                   1.000    
     FRACTION OF STABILITY LIMIT FOR NEW TIME INCREMENT               0.9500    
     TIME INCREMENT INCREASE FACTOR BEFORE A TIME POINT                1.000    

 *** INDICATES USE OF NON-DEFAULT TIME INCREMENTATION CONTROL PARAMETER
     SELECTED WITH *CONTROLS
     GLOBAL STABILIZATION CONTROL IS NOT USED

          PRINT OF INCREMENT NUMBER, TIME, ETC., EVERY    1  INCREMENTS

 LINE SEARCH TOLERANCE PARAMETERS:
 *** MAXIMUM NUMBER OF ZERO-FINDING ITERATIONS                                10
     MAXIMUM CORRECTION SCALE FACTOR                                    1.00    
     MINIMUM CORRECTION SCALE FACTOR                                   1.000E-04
     RESIDUAL REDUCTION FACTOR TO END LINE SEARCHING                   0.250    
     RATIO OF NEW TO OLD SCALE FACTORS TO END LINE SEARCHING           0.100    

 *** INDICATES USE OF NON-DEFAULT LINE SEARCH TOLERANCE PARAMETER
     SELECTED WITH *CONTROLS

     THE MAXIMUM NUMBER OF INCREMENTS IN THIS STEP IS                 *******

          LARGE DISPLACEMENT THEORY WILL BE USED

     LINEAR EXTRAPOLATION WILL BE USED

     CHARACTERISTIC ELEMENT LENGTH     2.727E-03

     DETAILS REGARDING ACTUAL SOLUTION WAVEFRONT REQUESTED

     DETAILED OUTPUT OF DIAGNOSTICS TO DATABASE REQUESTED

     PRINT OF INCREMENT NUMBER, TIME, ETC., TO THE MESSAGE FILE EVERY     1  INCREMENTS
  
     MODEL DECOMPOSITION USED FOR PARALLEL ELEMENT OPERATIONS:
  
        DOMAIN          ELEMENTS          NODES          INTERFACE
       --------        ----------        -------        -----------
           1                  84            215                193
           2                  84            227                210
           3                  82            216                180
           4                  84            250                209
           5                  82            196                179
           6                  84            190                172
           7                  82            228                192
           8                  83            225                196
           9                  82            288                228
          10                  82            318                266
          11                  84            288                252
          12                  84            224                207
          13                  84            204                186
          14                  82            245                214
          15                  84            251                232
          16                  84            241                220
  

     ELEMENT OPERATIONS WILL BE CARRIED OUT IN PARALLEL USING  16 DOMAINS WITH 1 THREAD PER DOMAIN

     COLLECTING MODEL CONSTRAINT INFORMATION FOR OVERCONSTRAINT CHECKS

     COLLECTING STEP CONSTRAINT INFORMATION FOR OVERCONSTRAINT CHECKS


  INCREMENT     1 STARTS. ATTEMPT NUMBER  1, TIME INCREMENT  0.100    
 
     INITIAL ELEMENT LOAD BALANCE
            DOMAIN    1     THREAD    NUMBER OF ELEMENTS
                              1            84
            DOMAIN    2     THREAD    NUMBER OF ELEMENTS
                              1            84
            DOMAIN    3     THREAD    NUMBER OF ELEMENTS
                              1            82
            DOMAIN    4     THREAD    NUMBER OF ELEMENTS
                              1            84
            DOMAIN    5     THREAD    NUMBER OF ELEMENTS
                              1            82
            DOMAIN    6     THREAD    NUMBER OF ELEMENTS
                              1            84
            DOMAIN    7     THREAD    NUMBER OF ELEMENTS
                              1            82
            DOMAIN    8     THREAD    NUMBER OF ELEMENTS
                              1            83
            DOMAIN    9     THREAD    NUMBER OF ELEMENTS
                              1            82
            DOMAIN   10     THREAD    NUMBER OF ELEMENTS
                              1            82
            DOMAIN   11     THREAD    NUMBER OF ELEMENTS
                              1            84
            DOMAIN   12     THREAD    NUMBER OF ELEMENTS
                              1            84
            DOMAIN   13     THREAD    NUMBER OF ELEMENTS
                              1            84
            DOMAIN   14     THREAD    NUMBER OF ELEMENTS
                              1            82
            DOMAIN   15     THREAD    NUMBER OF ELEMENTS
                              1            84
            DOMAIN   16     THREAD    NUMBER OF ELEMENTS
                              1            84
 
	SYMMETRIC ITERATIVE SOLVER RUNNING ON
 	1 HOST:        16 MPI RANKS x 1 THREAD
 	NUMBER OF EQUATIONS:     4002
 	NUMBER OF RHS:           1
 	KRYLOV METHOD:           CG
 	PRECONDITIONER:          PAMG
 	CONVERGENCE TOL:         1.000e-05
 	MAXIMUM ITERATIONS:      200
 	SETUP TIME:              0.1 SEC
 	APPLY TIME:              0.0 SEC
 
    NUMBER OF MATRIX-VECTOR MULTIPLICATIONS: 65
 
 ITERATIVE SOLVER CONVERGED.
 NUM. ITERATIONS =    6 RELATIVE RESIDUAL NORM =  4.309e-06 RHS NORM =  2.547e-02

               CONVERGENCE CHECKS FOR EQUILIBRIUM ITERATION     1


 AVERAGE FORCE                      1.420E-05   TIME AVG. FORCE       1.420E-05
 LARGEST SCALED RESIDUAL FORCE      1.403E-07   AT NODE       1717   DOF  3
   INSTANCE: PART-1-1                                                                        
  CORRESPONDING RESIDUAL FORCE      1.403E-07
 LARGEST INCREMENT OF DISP.         3.208E-06   AT NODE        282   DOF  2
   INSTANCE: PART-1-1                                                                        
 LARGEST CORRECTION TO DISP.        3.208E-06   AT NODE        282   DOF  2
   INSTANCE: PART-1-1                                                                        
          FORCE     EQUILIBRIUM NOT ACHIEVED WITHIN TOLERANCE.
 
	SYMMETRIC ITERATIVE SOLVER RUNNING ON
 	1 HOST:        16 MPI RANKS x 1 THREAD
 	NUMBER OF EQUATIONS:     4002
 	NUMBER OF RHS:           1
 	KRYLOV METHOD:           CG
 	PRECONDITIONER:          PAMG
 	CONVERGENCE TOL:         1.000e-05
 	MAXIMUM ITERATIONS:      200
 	SETUP TIME:              0.1 SEC
 	APPLY TIME:              0.0 SEC
 
    NUMBER OF MATRIX-VECTOR MULTIPLICATIONS: 65
 
 ITERATIVE SOLVER CONVERGED.
 NUM. ITERATIONS =    6 RELATIVE RESIDUAL NORM =  9.945e-06 RHS NORM =  3.304e-07

               CONVERGENCE CHECKS FOR EQUILIBRIUM ITERATION     2


 AVERAGE FORCE                      1.420E-05   TIME AVG. FORCE       1.420E-05
 LARGEST SCALED RESIDUAL FORCE     -1.325E-11   AT NODE       1717   DOF  3
   INSTANCE: PART-1-1                                                                        
  CORRESPONDING RESIDUAL FORCE     -1.325E-11
 LARGEST INCREMENT OF DISP.         3.208E-06   AT NODE        282   DOF  2
   INSTANCE: PART-1-1                                                                        
 LARGEST CORRECTION TO DISP.       -6.847E-11   AT NODE       1698   DOF  1
   INSTANCE: PART-1-1                                                                        
          THE FORCE     EQUILIBRIUM EQUATIONS HAVE CONVERGED

 ITERATION SUMMARY FOR THE INCREMENT:   2 TOTAL ITERATIONS, OF WHICH
   0 ARE SEVERE DISCONTINUITY ITERATIONS AND  2 ARE EQUILIBRIUM ITERATIONS.

 TIME INCREMENT COMPLETED  0.100    ,  FRACTION OF STEP COMPLETED  1.818E-03
 STEP TIME COMPLETED       0.100    ,  TOTAL TIME COMPLETED        0.100    


  INCREMENT     2 STARTS. ATTEMPT NUMBER  1, TIME INCREMENT  0.100    
 
	SYMMETRIC ITERATIVE SOLVER RUNNING ON
 	1 HOST:        16 MPI RANKS x 1 THREAD
 	NUMBER OF EQUATIONS:     4002
 	NUMBER OF RHS:           1
 	KRYLOV METHOD:           CG
 	PRECONDITIONER:          PAMG
 	CONVERGENCE TOL:         1.000e-05
 	MAXIMUM ITERATIONS:      200
 	SETUP TIME:              0.1 SEC
 	APPLY TIME:              0.0 SEC
 
    NUMBER OF MATRIX-VECTOR MULTIPLICATIONS: 65
 
 ITERATIVE SOLVER CONVERGED.
 NUM. ITERATIONS =    6 RELATIVE RESIDUAL NORM =  4.313e-06 RHS NORM =  2.548e-02

               CONVERGENCE CHECKS FOR EQUILIBRIUM ITERATION     1


 AVERAGE FORCE                      1.420E-05   TIME AVG. FORCE       1.420E-05
 LARGEST SCALED RESIDUAL FORCE      1.604E-05   AT NODE        638   DOF  2
   INSTANCE: PART-1-1                                                                        
  CORRESPONDING RESIDUAL FORCE      1.604E-05
 LARGEST INCREMENT OF DISP.        -2.302E-08   AT NODE        638   DOF  2
   INSTANCE: PART-1-1                                                                        
 LARGEST CORRECTION TO DISP.       -3.207E-06   AT NODE        282   DOF  2
   INSTANCE: PART-1-1                                                                        
          FORCE     EQUILIBRIUM NOT ACHIEVED WITHIN TOLERANCE.
 
	SYMMETRIC ITERATIVE SOLVER RUNNING ON
 	1 HOST:        16 MPI RANKS x 1 THREAD
 	NUMBER OF EQUATIONS:     4002
 	NUMBER OF RHS:           1
 	KRYLOV METHOD:           CG
 	PRECONDITIONER:          PAMG
 	CONVERGENCE TOL:         1.000e-05
 	MAXIMUM ITERATIONS:      200
 	SETUP TIME:              0.1 SEC
 	APPLY TIME:              0.0 SEC
 
    NUMBER OF MATRIX-VECTOR MULTIPLICATIONS: 65
 
 ITERATIVE SOLVER CONVERGED.
 NUM. ITERATIONS =    6 RELATIVE RESIDUAL NORM =  5.305e-06 RHS NORM =  4.699e-05

               CONVERGENCE CHECKS FOR EQUILIBRIUM ITERATION     2


 AVERAGE FORCE                      1.420E-05   TIME AVG. FORCE       1.420E-05
 LARGEST SCALED RESIDUAL FORCE      1.266E-09   AT NODE        638   DOF  2
   INSTANCE: PART-1-1                                                                        
  CORRESPONDING RESIDUAL FORCE      1.266E-09
 LARGEST INCREMENT OF DISP.        -1.751E-12   AT NODE        638   DOF  2
   INSTANCE: PART-1-1                                                                        
 LARGEST CORRECTION TO DISP.        2.302E-08   AT NODE        638   DOF  2
   INSTANCE: PART-1-1                                                                        
          FORCE     EQUILIB. ACCEPTED BASED ON SMALL RESIDUAL AND SMALL MAGNITUDE
           OF THE INCREMENT OF DISPLACEMENT
          TIME INCREMENT MAY NOW INCREASE TO    0.100    

 ITERATION SUMMARY FOR THE INCREMENT:   2 TOTAL ITERATIONS, OF WHICH
   0 ARE SEVERE DISCONTINUITY ITERATIONS AND  2 ARE EQUILIBRIUM ITERATIONS.

 TIME INCREMENT COMPLETED  0.100    ,  FRACTION OF STEP COMPLETED  3.636E-03
 STEP TIME COMPLETED       0.200    ,  TOTAL TIME COMPLETED        0.200    


  INCREMENT     3 STARTS. ATTEMPT NUMBER  1, TIME INCREMENT  0.100    
 
	SYMMETRIC ITERATIVE SOLVER RUNNING ON
 	1 HOST:        16 MPI RANKS x 1 THREAD
 	NUMBER OF EQUATIONS:     4002
 	NUMBER OF RHS:           1
 	KRYLOV METHOD:           CG
 	PRECONDITIONER:          PAMG
 	CONVERGENCE TOL:         1.000e-05
 	MAXIMUM ITERATIONS:      200
 	SETUP TIME:              0.1 SEC
 	APPLY TIME:              0.0 SEC
 
    NUMBER OF MATRIX-VECTOR MULTIPLICATIONS: 65
 
 ITERATIVE SOLVER CONVERGED.
 NUM. ITERATIONS =    6 RELATIVE RESIDUAL NORM =  9.060e-06 RHS NORM =  6.233e-09

               CONVERGENCE CHECKS FOR EQUILIBRIUM ITERATION     1


 AVERAGE FORCE                      1.420E-05   TIME AVG. FORCE       1.420E-05
 LARGEST SCALED RESIDUAL FORCE      2.400E-13   AT NODE        638   DOF  2
   INSTANCE: PART-1-1                                                                        
  CORRESPONDING RESIDUAL FORCE      2.400E-13
 LARGEST INCREMENT OF DISP.         1.752E-12   AT NODE        638   DOF  2
   INSTANCE: PART-1-1                                                                        
 LARGEST CORRECTION TO DISP.        3.503E-12   AT NODE        638   DOF  2
   INSTANCE: PART-1-1                                                                        
          FORCE     EQUILIB. ACCEPTED BASED ON SMALL RESIDUAL AND SMALL MAGNITUDE
           OF THE INCREMENT OF DISPLACEMENT
          TIME INCREMENT MAY NOW INCREASE TO    0.150    
          TIME INCREMENT REDUCED TO   0.100     TO MEET NEXT OUTPUT TIME POINT

 ITERATION SUMMARY FOR THE INCREMENT:   1 TOTAL ITERATIONS, OF WHICH
   0 ARE SEVERE DISCONTINUITY ITERATIONS AND  1 ARE EQUILIBRIUM ITERATIONS.

 TIME INCREMENT COMPLETED  0.100    ,  FRACTION OF STEP COMPLETED  5.455E-03
 STEP TIME COMPLETED       0.300    ,  TOTAL TIME COMPLETED        0.300    


  INCREMENT     4 STARTS. ATTEMPT NUMBER  1, TIME INCREMENT  0.100    
 
	SYMMETRIC ITERATIVE SOLVER RUNNING ON
 	1 HOST:        16 MPI RANKS x 1 THREAD
 	NUMBER OF EQUATIONS:     4002
 	NUMBER OF RHS:           1
 	KRYLOV METHOD:           CG
 	PRECONDITIONER:          PAMG
 	CONVERGENCE TOL:         1.000e-05
 	MAXIMUM ITERATIONS:      200
 	SETUP TIME:              0.1 SEC
 	APPLY TIME:              0.0 SEC
 
    NUMBER OF MATRIX-VECTOR MULTIPLICATIONS: 65
 
 ITERATIVE SOLVER CONVERGED.
 NUM. ITERATIONS =    6 RELATIVE RESIDUAL NORM =  4.309e-06 RHS NORM =  2.544e-02

               CONVERGENCE CHECKS FOR EQUILIBRIUM ITERATION     1


 AVERAGE FORCE                      2.837E-05   TIME AVG. FORCE       1.774E-05
 LARGEST SCALED RESIDUAL FORCE      1.107E-06   AT NODE        638   DOF  2
   INSTANCE: PART-1-1                                                                        
  CORRESPONDING RESIDUAL FORCE      1.107E-06
 LARGEST INCREMENT OF DISP.         3.203E-06   AT NODE        282   DOF  2
   INSTANCE: PART-1-1                                                                        
 LARGEST CORRECTION TO DISP.        3.203E-06   AT NODE        282   DOF  2
   INSTANCE: PART-1-1                                                                        
          FORCE     EQUILIBRIUM NOT ACHIEVED WITHIN TOLERANCE.
 
	SYMMETRIC ITERATIVE SOLVER RUNNING ON
 	1 HOST:        16 MPI RANKS x 1 THREAD
 	NUMBER OF EQUATIONS:     4002
 	NUMBER OF RHS:           1
 	KRYLOV METHOD:           CG
 	PRECONDITIONER:          PAMG
 	CONVERGENCE TOL:         1.000e-05
 	MAXIMUM ITERATIONS:      200
 	SETUP TIME:              0.1 SEC
 	APPLY TIME:              0.0 SEC
 
    NUMBER OF MATRIX-VECTOR MULTIPLICATIONS: 65
 
 ITERATIVE SOLVER CONVERGED.
 NUM. ITERATIONS =    6 RELATIVE RESIDUAL NORM =  5.420e-06 RHS NORM =  3.585e-06

               CONVERGENCE CHECKS FOR EQUILIBRIUM ITERATION     2


 AVERAGE FORCE                      2.837E-05   TIME AVG. FORCE       1.774E-05
 LARGEST SCALED RESIDUAL FORCE     -3.020E-09   AT NODE        787   DOF  2
   INSTANCE: PART-1-1                                                                        
  CORRESPONDING RESIDUAL FORCE     -3.020E-09
 LARGEST INCREMENT OF DISP.         3.203E-06   AT NODE        282   DOF  2
   INSTANCE: PART-1-1                                                                        
 LARGEST CORRECTION TO DISP.        1.771E-09   AT NODE        638   DOF  2
   INSTANCE: PART-1-1                                                                        
          THE FORCE     EQUILIBRIUM EQUATIONS HAVE CONVERGED
          TIME INCREMENT MAY NOW INCREASE TO    0.225    
          TIME INCREMENT REDUCED TO   0.100     TO MEET NEXT OUTPUT TIME POINT

 ITERATION SUMMARY FOR THE INCREMENT:   2 TOTAL ITERATIONS, OF WHICH
   0 ARE SEVERE DISCONTINUITY ITERATIONS AND  2 ARE EQUILIBRIUM ITERATIONS.

 TIME INCREMENT COMPLETED  0.100    ,  FRACTION OF STEP COMPLETED  7.273E-03
 STEP TIME COMPLETED       0.400    ,  TOTAL TIME COMPLETED        0.400    


  INCREMENT     5 STARTS. ATTEMPT NUMBER  1, TIME INCREMENT  0.100    
 
	SYMMETRIC ITERATIVE SOLVER RUNNING ON
 	1 HOST:        16 MPI RANKS x 1 THREAD
 	NUMBER OF EQUATIONS:     4002
 	NUMBER OF RHS:           1
 	KRYLOV METHOD:           CG
 	PRECONDITIONER:          PAMG
 	CONVERGENCE TOL:         1.000e-05
 	MAXIMUM ITERATIONS:      200
 	SETUP TIME:              0.1 SEC
 	APPLY TIME:              0.0 SEC
 
    NUMBER OF MATRIX-VECTOR MULTIPLICATIONS: 65
 
 ITERATIVE SOLVER CONVERGED.
 NUM. ITERATIONS =    6 RELATIVE RESIDUAL NORM =  4.456e-06 RHS NORM =  2.385e-02

               CONVERGENCE CHECKS FOR EQUILIBRIUM ITERATION     1


 AVERAGE FORCE                      2.872E-05   TIME AVG. FORCE       1.994E-05
 LARGEST SCALED RESIDUAL FORCE     -9.306E-04   AT NODE       1596   DOF  1
   INSTANCE: PART-1-1                                                                        
  CORRESPONDING RESIDUAL FORCE     -9.306E-04
 LARGEST INCREMENT OF DISP.        -3.788E-07   AT NODE        143   DOF  3
   INSTANCE: PART-1-1                                                                        
 LARGEST CORRECTION TO DISP.       -3.209E-06   AT NODE       1722   DOF  2
   INSTANCE: PART-1-1                                                                        
          FORCE     EQUILIBRIUM NOT ACHIEVED WITHIN TOLERANCE.
 
	SYMMETRIC ITERATIVE SOLVER RUNNING ON
 	1 HOST:        16 MPI RANKS x 1 THREAD
 	NUMBER OF EQUATIONS:     4002
 	NUMBER OF RHS:           1
 	KRYLOV METHOD:           CG
 	PRECONDITIONER:          PAMG
 	CONVERGENCE TOL:         1.000e-05
 	MAXIMUM ITERATIONS:      200
 	SETUP TIME:              0.1 SEC
 	APPLY TIME:              0.0 SEC
 
    NUMBER OF MATRIX-VECTOR MULTIPLICATIONS: 65
 
 ITERATIVE SOLVER CONVERGED.
 NUM. ITERATIONS =    6 RELATIVE RESIDUAL NORM =  5.977e-06 RHS NORM =  1.409e-03

               CONVERGENCE CHECKS FOR EQUILIBRIUM ITERATION     2


 AVERAGE FORCE                      2.837E-05   TIME AVG. FORCE       1.987E-05
 LARGEST SCALED RESIDUAL FORCE     -1.778E-06   AT NODE        623   DOF  2
   INSTANCE: PART-1-1                                                                        
  CORRESPONDING RESIDUAL FORCE     -1.778E-06
 LARGEST INCREMENT OF DISP.         2.194E-09   AT NODE        623   DOF  2
   INSTANCE: PART-1-1                                                                        
 LARGEST CORRECTION TO DISP.        3.788E-07   AT NODE        143   DOF  3
   INSTANCE: PART-1-1                                                                        
          FORCE     EQUILIBRIUM NOT ACHIEVED WITHIN TOLERANCE.
 
	SYMMETRIC ITERATIVE SOLVER RUNNING ON
 	1 HOST:        16 MPI RANKS x 1 THREAD
 	NUMBER OF EQUATIONS:     4002
 	NUMBER OF RHS:           1
 	KRYLOV METHOD:           CG
 	PRECONDITIONER:          PAMG
 	CONVERGENCE TOL:         1.000e-05
 	MAXIMUM ITERATIONS:      200
 	SETUP TIME:              0.1 SEC
 	APPLY TIME:              0.0 SEC
 
    NUMBER OF MATRIX-VECTOR MULTIPLICATIONS: 65
 
 ITERATIVE SOLVER CONVERGED.
 NUM. ITERATIONS =    6 RELATIVE RESIDUAL NORM =  5.357e-06 RHS NORM =  4.266e-06

               CONVERGENCE CHECKS FOR EQUILIBRIUM ITERATION     3


 AVERAGE FORCE                      2.837E-05   TIME AVG. FORCE       1.987E-05
 LARGEST SCALED RESIDUAL FORCE     -4.794E-09   AT NODE        623   DOF  2
   INSTANCE: PART-1-1                                                                        
  CORRESPONDING RESIDUAL FORCE     -4.794E-09
 LARGEST INCREMENT OF DISP.         7.772E-10   AT NODE        638   DOF  2
   INSTANCE: PART-1-1                                                                        
 LARGEST CORRECTION TO DISP.       -2.328E-09   AT NODE        623   DOF  2
   INSTANCE: PART-1-1                                                                        
 ESTIMATE OF DISP.    CORRECTION   -6.278E-12
 FORCE     EQUILIB. ACCEPTED BASED ON SMALL RESIDUAL AND ESTIMATED CORRECTION
          TIME INCREMENT MAY NOW INCREASE TO    0.225    
          TIME INCREMENT REDUCED TO   0.100     TO MEET NEXT OUTPUT TIME POINT

 ITERATION SUMMARY FOR THE INCREMENT:   3 TOTAL ITERATIONS, OF WHICH
   0 ARE SEVERE DISCONTINUITY ITERATIONS AND  3 ARE EQUILIBRIUM ITERATIONS.

 TIME INCREMENT COMPLETED  0.100    ,  FRACTION OF STEP COMPLETED  9.091E-03
 STEP TIME COMPLETED       0.500    ,  TOTAL TIME COMPLETED        0.500    


  INCREMENT     6 STARTS. ATTEMPT NUMBER  1, TIME INCREMENT  0.100    
 
	SYMMETRIC ITERATIVE SOLVER RUNNING ON
 	1 HOST:        16 MPI RANKS x 1 THREAD
 	NUMBER OF EQUATIONS:     4002
 	NUMBER OF RHS:           1
 	KRYLOV METHOD:           CG
 	PRECONDITIONER:          PAMG
 	CONVERGENCE TOL:         1.000e-05
 	MAXIMUM ITERATIONS:      200
 	SETUP TIME:              0.1 SEC
 	APPLY TIME:              0.0 SEC
 
    NUMBER OF MATRIX-VECTOR MULTIPLICATIONS: 65
 
 ITERATIVE SOLVER CONVERGED.
 NUM. ITERATIONS =    6 RELATIVE RESIDUAL NORM =  4.311e-06 RHS NORM =  2.549e-02
 

 ***NOTE: USER SUBROUTINE REQUESTS A TIME INCREMENT CHANGE.


  INCREMENT     6 STARTS. ATTEMPT NUMBER  2, TIME INCREMENT  5.000E-02
 
	SYMMETRIC ITERATIVE SOLVER RUNNING ON
 	1 HOST:        16 MPI RANKS x 1 THREAD
 	NUMBER OF EQUATIONS:     4002
 	NUMBER OF RHS:           1
 	KRYLOV METHOD:           CG
 	PRECONDITIONER:          PAMG
 	CONVERGENCE TOL:         1.000e-05
 	MAXIMUM ITERATIONS:      200
 	SETUP TIME:              0.1 SEC
 	APPLY TIME:              0.0 SEC
 
    NUMBER OF MATRIX-VECTOR MULTIPLICATIONS: 65
 
 ITERATIVE SOLVER CONVERGED.
 NUM. ITERATIONS =    6 RELATIVE RESIDUAL NORM =  4.310e-06 RHS NORM =  1.274e-02

               CONVERGENCE CHECKS FOR EQUILIBRIUM ITERATION     1


 AVERAGE FORCE                      3.540E-05   TIME AVG. FORCE       2.246E-05
 LARGEST SCALED RESIDUAL FORCE     -3.677E-05   AT NODE       1596   DOF  1
   INSTANCE: PART-1-1                                                                        
  CORRESPONDING RESIDUAL FORCE     -3.677E-05
 LARGEST INCREMENT OF DISP.         1.604E-06   AT NODE        282   DOF  2
   INSTANCE: PART-1-1                                                                        
 LARGEST CORRECTION TO DISP.        1.604E-06   AT NODE        282   DOF  2
   INSTANCE: PART-1-1                                                                        
          FORCE     EQUILIBRIUM NOT ACHIEVED WITHIN TOLERANCE.
 
	SYMMETRIC ITERATIVE SOLVER RUNNING ON
 	1 HOST:        16 MPI RANKS x 1 THREAD
 	NUMBER OF EQUATIONS:     4002
 	NUMBER OF RHS:           1
 	KRYLOV METHOD:           CG
 	PRECONDITIONER:          PAMG
 	CONVERGENCE TOL:         1.000e-05
 	MAXIMUM ITERATIONS:      200
 	SETUP TIME:              0.1 SEC
 	APPLY TIME:              0.0 SEC
 
    NUMBER OF MATRIX-VECTOR MULTIPLICATIONS: 65
 
 ITERATIVE SOLVER CONVERGED.
 NUM. ITERATIONS =    6 RELATIVE RESIDUAL NORM =  6.935e-06 RHS NORM =  9.197e-05

               CONVERGENCE CHECKS FOR EQUILIBRIUM ITERATION     2


 AVERAGE FORCE                      3.537E-05   TIME AVG. FORCE       2.245E-05
 LARGEST SCALED RESIDUAL FORCE     -6.787E-07   AT NODE       1075   DOF  3
   INSTANCE: PART-1-1                                                                        
  CORRESPONDING RESIDUAL FORCE     -6.787E-07
 LARGEST INCREMENT OF DISP.         1.607E-06   AT NODE        282   DOF  2
   INSTANCE: PART-1-1                                                                        
 LARGEST CORRECTION TO DISP.        3.832E-08   AT NODE        799   DOF  3
   INSTANCE: PART-1-1                                                                        
          FORCE     EQUILIBRIUM NOT ACHIEVED WITHIN TOLERANCE.
 
	SYMMETRIC ITERATIVE SOLVER RUNNING ON
 	1 HOST:        16 MPI RANKS x 1 THREAD
 	NUMBER OF EQUATIONS:     4002
 	NUMBER OF RHS:           1
 	KRYLOV METHOD:           CG
 	PRECONDITIONER:          PAMG
 	CONVERGENCE TOL:         1.000e-05
 	MAXIMUM ITERATIONS:      200
 	SETUP TIME:              0.1 SEC
 	APPLY TIME:              0.0 SEC
 
    NUMBER OF MATRIX-VECTOR MULTIPLICATIONS: 65
 
 ITERATIVE SOLVER CONVERGED.
 NUM. ITERATIONS =    6 RELATIVE RESIDUAL NORM =  7.521e-06 RHS NORM =  2.118e-06

               CONVERGENCE CHECKS FOR EQUILIBRIUM ITERATION     3


 AVERAGE FORCE                      3.537E-05   TIME AVG. FORCE       2.245E-05
 LARGEST SCALED RESIDUAL FORCE      1.158E-09   AT NODE       1086   DOF  2
   INSTANCE: PART-1-1                                                                        
  CORRESPONDING RESIDUAL FORCE      1.158E-09
 LARGEST INCREMENT OF DISP.         1.607E-06   AT NODE        282   DOF  2
   INSTANCE: PART-1-1                                                                        
 LARGEST CORRECTION TO DISP.       -1.178E-09   AT NODE        931   DOF  2
   INSTANCE: PART-1-1                                                                        
          THE FORCE     EQUILIBRIUM EQUATIONS HAVE CONVERGED
          TIME INCREMENT MAY NOW INCREASE TO    7.500E-02
          TIME INCREMENT REDUCED TO   5.000E-02 TO MEET NEXT OUTPUT TIME POINT

 ITERATION SUMMARY FOR THE INCREMENT:   3 TOTAL ITERATIONS, OF WHICH
   0 ARE SEVERE DISCONTINUITY ITERATIONS AND  3 ARE EQUILIBRIUM ITERATIONS.

 TIME INCREMENT COMPLETED  5.000E-02,  FRACTION OF STEP COMPLETED  1.000E-02
 STEP TIME COMPLETED       0.550    ,  TOTAL TIME COMPLETED        0.550    


  INCREMENT     7 STARTS. ATTEMPT NUMBER  1, TIME INCREMENT  5.000E-02
 
	SYMMETRIC ITERATIVE SOLVER RUNNING ON
 	1 HOST:        16 MPI RANKS x 1 THREAD
 	NUMBER OF EQUATIONS:     4002
 	NUMBER OF RHS:           1
 	KRYLOV METHOD:           CG
 	PRECONDITIONER:          PAMG
 	CONVERGENCE TOL:         1.000e-05
 	MAXIMUM ITERATIONS:      200
 	SETUP TIME:              0.1 SEC
 	APPLY TIME:              0.0 SEC
 
    NUMBER OF MATRIX-VECTOR MULTIPLICATIONS: 65
 
 ITERATIVE SOLVER CONVERGED.
 NUM. ITERATIONS =    6 RELATIVE RESIDUAL NORM =  8.361e-06 RHS NORM =  3.892e-04

               CONVERGENCE CHECKS FOR EQUILIBRIUM ITERATION     1


 AVERAGE FORCE                      4.149E-05   TIME AVG. FORCE       2.517E-05
 LARGEST SCALED RESIDUAL FORCE     -7.542E-06   AT NODE       1596   DOF  1
   INSTANCE: PART-1-1                                                                        
  CORRESPONDING RESIDUAL FORCE     -7.542E-06
 LARGEST INCREMENT OF DISP.         1.620E-06   AT NODE       1722   DOF  2
   INSTANCE: PART-1-1                                                                        
 LARGEST CORRECTION TO DISP.        1.728E-07   AT NODE        143   DOF  3
   INSTANCE: PART-1-1                                                                        
          FORCE     EQUILIBRIUM NOT ACHIEVED WITHIN TOLERANCE.
 
	SYMMETRIC ITERATIVE SOLVER RUNNING ON
 	1 HOST:        16 MPI RANKS x 1 THREAD
 	NUMBER OF EQUATIONS:     4002
 	NUMBER OF RHS:           1
 	KRYLOV METHOD:           CG
 	PRECONDITIONER:          PAMG
 	CONVERGENCE TOL:         1.000e-05
 	MAXIMUM ITERATIONS:      200
 	SETUP TIME:              0.1 SEC
 	APPLY TIME:              0.0 SEC
 
    NUMBER OF MATRIX-VECTOR MULTIPLICATIONS: 65
 
 ITERATIVE SOLVER CONVERGED.
 NUM. ITERATIONS =    6 RELATIVE RESIDUAL NORM =  8.517e-06 RHS NORM =  1.304e-05

               CONVERGENCE CHECKS FOR EQUILIBRIUM ITERATION     2


 AVERAGE FORCE                      4.148E-05   TIME AVG. FORCE       2.517E-05
 LARGEST SCALED RESIDUAL FORCE     -1.331E-08   AT NODE       1596   DOF  1
   INSTANCE: PART-1-1                                                                        
  CORRESPONDING RESIDUAL FORCE     -1.331E-08
 LARGEST INCREMENT OF DISP.         1.620E-06   AT NODE       1722   DOF  2
   INSTANCE: PART-1-1                                                                        
 LARGEST CORRECTION TO DISP.        5.152E-09   AT NODE        506   DOF  3
   INSTANCE: PART-1-1                                                                        
          THE FORCE     EQUILIBRIUM EQUATIONS HAVE CONVERGED
          TIME INCREMENT MAY NOW INCREASE TO    0.100    

 ITERATION SUMMARY FOR THE INCREMENT:   2 TOTAL ITERATIONS, OF WHICH
   0 ARE SEVERE DISCONTINUITY ITERATIONS AND  2 ARE EQUILIBRIUM ITERATIONS.

 TIME INCREMENT COMPLETED  5.000E-02,  FRACTION OF STEP COMPLETED  1.091E-02
 STEP TIME COMPLETED       0.600    ,  TOTAL TIME COMPLETED        0.600    


  INCREMENT     8 STARTS. ATTEMPT NUMBER  1, TIME INCREMENT  0.100    
 
	SYMMETRIC ITERATIVE SOLVER RUNNING ON
 	1 HOST:        16 MPI RANKS x 1 THREAD
 	NUMBER OF EQUATIONS:     4002
 	NUMBER OF RHS:           1
 	KRYLOV METHOD:           CG
 	PRECONDITIONER:          PAMG
 	CONVERGENCE TOL:         1.000e-05
 	MAXIMUM ITERATIONS:      200
 	SETUP TIME:              0.1 SEC
 	APPLY TIME:              0.0 SEC
 
    NUMBER OF MATRIX-VECTOR MULTIPLICATIONS: 65
 
 ITERATIVE SOLVER CONVERGED.
 NUM. ITERATIONS =    6 RELATIVE RESIDUAL NORM =  7.612e-06 RHS NORM =  1.754e-03
 

 ***NOTE: USER SUBROUTINE REQUESTS A TIME INCREMENT CHANGE.


  INCREMENT     8 STARTS. ATTEMPT NUMBER  2, TIME INCREMENT  5.000E-02
 
	SYMMETRIC ITERATIVE SOLVER RUNNING ON
 	1 HOST:        16 MPI RANKS x 1 THREAD
 	NUMBER OF EQUATIONS:     4002
 	NUMBER OF RHS:           1
 	KRYLOV METHOD:           CG
 	PRECONDITIONER:          PAMG
 	CONVERGENCE TOL:         1.000e-05
 	MAXIMUM ITERATIONS:      200
 	SETUP TIME:              0.1 SEC
 	APPLY TIME:              0.0 SEC
 
    NUMBER OF MATRIX-VECTOR MULTIPLICATIONS: 65
 
 ITERATIVE SOLVER CONVERGED.
 NUM. ITERATIONS =    6 RELATIVE RESIDUAL NORM =  6.796e-06 RHS NORM =  6.406e-04

               CONVERGENCE CHECKS FOR EQUILIBRIUM ITERATION     1


 AVERAGE FORCE                      4.627E-05   TIME AVG. FORCE       2.781E-05
 LARGEST SCALED RESIDUAL FORCE     -7.008E-06   AT NODE       1596   DOF  1
   INSTANCE: PART-1-1                                                                        
  CORRESPONDING RESIDUAL FORCE     -7.008E-06
 LARGEST INCREMENT OF DISP.         1.620E-06   AT NODE       1723   DOF  2
   INSTANCE: PART-1-1                                                                        
 LARGEST CORRECTION TO DISP.        2.262E-07   AT NODE        140   DOF  3
   INSTANCE: PART-1-1                                                                        
          FORCE     EQUILIBRIUM NOT ACHIEVED WITHIN TOLERANCE.
 
	SYMMETRIC ITERATIVE SOLVER RUNNING ON
 	1 HOST:        16 MPI RANKS x 1 THREAD
 	NUMBER OF EQUATIONS:     4002
 	NUMBER OF RHS:           1
 	KRYLOV METHOD:           CG
 	PRECONDITIONER:          PAMG
 	CONVERGENCE TOL:         1.000e-05
 	MAXIMUM ITERATIONS:      200
 	SETUP TIME:              0.1 SEC
 	APPLY TIME:              0.0 SEC
 
    NUMBER OF MATRIX-VECTOR MULTIPLICATIONS: 65
 
 ITERATIVE SOLVER CONVERGED.
 NUM. ITERATIONS =    6 RELATIVE RESIDUAL NORM =  9.095e-06 RHS NORM =  1.757e-05
 

 ***NOTE: USER SUBROUTINE REQUESTS A TIME INCREMENT CHANGE.


  INCREMENT     8 STARTS. ATTEMPT NUMBER  3, TIME INCREMENT  2.500E-02
 
	SYMMETRIC ITERATIVE SOLVER RUNNING ON
 	1 HOST:        16 MPI RANKS x 1 THREAD
 	NUMBER OF EQUATIONS:     4002
 	NUMBER OF RHS:           1
 	KRYLOV METHOD:           CG
 	PRECONDITIONER:          PAMG
 	CONVERGENCE TOL:         1.000e-05
 	MAXIMUM ITERATIONS:      200
 	SETUP TIME:              0.1 SEC
 	APPLY TIME:              0.0 SEC
 
    NUMBER OF MATRIX-VECTOR MULTIPLICATIONS: 65
 
 ITERATIVE SOLVER CONVERGED.
 NUM. ITERATIONS =    6 RELATIVE RESIDUAL NORM =  6.282e-06 RHS NORM =  2.205e-04

               CONVERGENCE CHECKS FOR EQUILIBRIUM ITERATION     1


 AVERAGE FORCE                      4.414E-05   TIME AVG. FORCE       2.754E-05
 LARGEST SCALED RESIDUAL FORCE     -1.921E-06   AT NODE       1596   DOF  1
   INSTANCE: PART-1-1                                                                        
  CORRESPONDING RESIDUAL FORCE     -1.921E-06
 LARGEST INCREMENT OF DISP.         8.086E-07   AT NODE       1723   DOF  2
   INSTANCE: PART-1-1                                                                        
 LARGEST CORRECTION TO DISP.        6.836E-08   AT NODE        140   DOF  3
   INSTANCE: PART-1-1                                                                        
          FORCE     EQUILIBRIUM NOT ACHIEVED WITHIN TOLERANCE.
 
	SYMMETRIC ITERATIVE SOLVER RUNNING ON
 	1 HOST:        16 MPI RANKS x 1 THREAD
 	NUMBER OF EQUATIONS:     4002
 	NUMBER OF RHS:           1
 	KRYLOV METHOD:           CG
 	PRECONDITIONER:          PAMG
 	CONVERGENCE TOL:         1.000e-05
 	MAXIMUM ITERATIONS:      200
 	SETUP TIME:              0.1 SEC
 	APPLY TIME:              0.0 SEC
 
    NUMBER OF MATRIX-VECTOR MULTIPLICATIONS: 65
 
 ITERATIVE SOLVER CONVERGED.
 NUM. ITERATIONS =    6 RELATIVE RESIDUAL NORM =  8.167e-06 RHS NORM =  4.447e-06

               CONVERGENCE CHECKS FOR EQUILIBRIUM ITERATION     2


 AVERAGE FORCE                      4.414E-05   TIME AVG. FORCE       2.754E-05
 LARGEST SCALED RESIDUAL FORCE     -2.017E-09   AT NODE        963   DOF  1
   INSTANCE: PART-1-1                                                                        
  CORRESPONDING RESIDUAL FORCE     -2.017E-09
 LARGEST INCREMENT OF DISP.         8.087E-07   AT NODE       1723   DOF  2
   INSTANCE: PART-1-1                                                                        
 LARGEST CORRECTION TO DISP.        1.600E-09   AT NODE        962   DOF  2
   INSTANCE: PART-1-1                                                                        
          THE FORCE     EQUILIBRIUM EQUATIONS HAVE CONVERGED
          TIME INCREMENT MAY NOW INCREASE TO    3.750E-02

 ITERATION SUMMARY FOR THE INCREMENT:   2 TOTAL ITERATIONS, OF WHICH
   0 ARE SEVERE DISCONTINUITY ITERATIONS AND  2 ARE EQUILIBRIUM ITERATIONS.

 TIME INCREMENT COMPLETED  2.500E-02,  FRACTION OF STEP COMPLETED  1.136E-02
 STEP TIME COMPLETED       0.625    ,  TOTAL TIME COMPLETED        0.625    


  INCREMENT     9 STARTS. ATTEMPT NUMBER  1, TIME INCREMENT  3.750E-02
 
	SYMMETRIC ITERATIVE SOLVER RUNNING ON
 	1 HOST:        16 MPI RANKS x 1 THREAD
 	NUMBER OF EQUATIONS:     4002
 	NUMBER OF RHS:           1
 	KRYLOV METHOD:           CG
 	PRECONDITIONER:          PAMG
 	CONVERGENCE TOL:         1.000e-05
 	MAXIMUM ITERATIONS:      200
 	SETUP TIME:              0.1 SEC
 	APPLY TIME:              0.0 SEC
 
    NUMBER OF MATRIX-VECTOR MULTIPLICATIONS: 65
 
 ITERATIVE SOLVER CONVERGED.
 NUM. ITERATIONS =    6 RELATIVE RESIDUAL NORM =  6.780e-06 RHS NORM =  3.779e-04

               CONVERGENCE CHECKS FOR EQUILIBRIUM ITERATION     1


 AVERAGE FORCE                      4.739E-05   TIME AVG. FORCE       2.975E-05
 LARGEST SCALED RESIDUAL FORCE      2.666E-06   AT NODE          1   DOF  3
   INSTANCE: PART-1-1                                                                        
  CORRESPONDING RESIDUAL FORCE      2.666E-06
 LARGEST INCREMENT OF DISP.         1.216E-06   AT NODE       1723   DOF  2
   INSTANCE: PART-1-1                                                                        
 LARGEST CORRECTION TO DISP.        1.247E-07   AT NODE        141   DOF  3
   INSTANCE: PART-1-1                                                                        
          FORCE     EQUILIBRIUM NOT ACHIEVED WITHIN TOLERANCE.
 
	SYMMETRIC ITERATIVE SOLVER RUNNING ON
 	1 HOST:        16 MPI RANKS x 1 THREAD
 	NUMBER OF EQUATIONS:     4002
 	NUMBER OF RHS:           1
 	KRYLOV METHOD:           CG
 	PRECONDITIONER:          PAMG
 	CONVERGENCE TOL:         1.000e-05
 	MAXIMUM ITERATIONS:      200
 	SETUP TIME:              0.1 SEC
 	APPLY TIME:              0.0 SEC
 
    NUMBER OF MATRIX-VECTOR MULTIPLICATIONS: 65
 
 ITERATIVE SOLVER CONVERGED.
 NUM. ITERATIONS =    6 RELATIVE RESIDUAL NORM =  9.510e-06 RHS NORM =  7.249e-06

               CONVERGENCE CHECKS FOR EQUILIBRIUM ITERATION     2


 AVERAGE FORCE                      4.738E-05   TIME AVG. FORCE       2.975E-05
 LARGEST SCALED RESIDUAL FORCE      2.998E-09   AT NODE       1596   DOF  1
   INSTANCE: PART-1-1                                                                        
  CORRESPONDING RESIDUAL FORCE      2.998E-09
 LARGEST INCREMENT OF DISP.         1.216E-06   AT NODE       1723   DOF  2
   INSTANCE: PART-1-1                                                                        
 LARGEST CORRECTION TO DISP.        2.408E-09   AT NODE        178   DOF  3
   INSTANCE: PART-1-1                                                                        
          THE FORCE     EQUILIBRIUM EQUATIONS HAVE CONVERGED
          TIME INCREMENT MAY NOW INCREASE TO    5.625E-02
          TIME INCREMENT REDUCED TO   3.750E-02 TO MEET NEXT OUTPUT TIME POINT

 ITERATION SUMMARY FOR THE INCREMENT:   2 TOTAL ITERATIONS, OF WHICH
   0 ARE SEVERE DISCONTINUITY ITERATIONS AND  2 ARE EQUILIBRIUM ITERATIONS.

 TIME INCREMENT COMPLETED  3.750E-02,  FRACTION OF STEP COMPLETED  1.205E-02
 STEP TIME COMPLETED       0.663    ,  TOTAL TIME COMPLETED        0.663    


  INCREMENT    10 STARTS. ATTEMPT NUMBER  1, TIME INCREMENT  3.750E-02
 
	SYMMETRIC ITERATIVE SOLVER RUNNING ON
 	1 HOST:        16 MPI RANKS x 1 THREAD
 	NUMBER OF EQUATIONS:     4002
 	NUMBER OF RHS:           1
 	KRYLOV METHOD:           CG
 	PRECONDITIONER:          PAMG
 	CONVERGENCE TOL:         1.000e-05
 	MAXIMUM ITERATIONS:      200
 	SETUP TIME:              0.1 SEC
 	APPLY TIME:              0.0 SEC
 
    NUMBER OF MATRIX-VECTOR MULTIPLICATIONS: 65
 
 ITERATIVE SOLVER CONVERGED.
 NUM. ITERATIONS =    6 RELATIVE RESIDUAL NORM =  9.135e-06 RHS NORM =  2.654e-04

               CONVERGENCE CHECKS FOR EQUILIBRIUM ITERATION     1


 AVERAGE FORCE                      5.032E-05   TIME AVG. FORCE       3.180E-05
 LARGEST SCALED RESIDUAL FORCE      4.428E-06   AT NODE          1   DOF  3
   INSTANCE: PART-1-1                                                                        
  CORRESPONDING RESIDUAL FORCE      4.428E-06
 LARGEST INCREMENT OF DISP.         1.217E-06   AT NODE       1723   DOF  2
   INSTANCE: PART-1-1                                                                        
 LARGEST CORRECTION TO DISP.        6.207E-08   AT NODE        103   DOF  3
   INSTANCE: PART-1-1                                                                        
          FORCE     EQUILIBRIUM NOT ACHIEVED WITHIN TOLERANCE.
 
	SYMMETRIC ITERATIVE SOLVER RUNNING ON
 	1 HOST:        16 MPI RANKS x 1 THREAD
 	NUMBER OF EQUATIONS:     4002
 	NUMBER OF RHS:           1
 	KRYLOV METHOD:           CG
 	PRECONDITIONER:          PAMG
 	CONVERGENCE TOL:         1.000e-05
 	MAXIMUM ITERATIONS:      200
 	SETUP TIME:              0.1 SEC
 	APPLY TIME:              0.0 SEC
 
    NUMBER OF MATRIX-VECTOR MULTIPLICATIONS: 74
 
 ITERATIVE SOLVER CONVERGED.
 NUM. ITERATIONS =    7 RELATIVE RESIDUAL NORM =  1.718e-06 RHS NORM =  7.626e-06

               CONVERGENCE CHECKS FOR EQUILIBRIUM ITERATION     2


 AVERAGE FORCE                      5.032E-05   TIME AVG. FORCE       3.180E-05
 LARGEST SCALED RESIDUAL FORCE      1.237E-08   AT NODE          1   DOF  3
   INSTANCE: PART-1-1                                                                        
  CORRESPONDING RESIDUAL FORCE      1.237E-08
 LARGEST INCREMENT OF DISP.         1.217E-06   AT NODE       1723   DOF  2
   INSTANCE: PART-1-1                                                                        
 LARGEST CORRECTION TO DISP.        2.460E-09   AT NODE       1656   DOF  2
   INSTANCE: PART-1-1                                                                        
          THE FORCE     EQUILIBRIUM EQUATIONS HAVE CONVERGED
          TIME INCREMENT MAY NOW INCREASE TO    0.100    

 ITERATION SUMMARY FOR THE INCREMENT:   2 TOTAL ITERATIONS, OF WHICH
   0 ARE SEVERE DISCONTINUITY ITERATIONS AND  2 ARE EQUILIBRIUM ITERATIONS.

 TIME INCREMENT COMPLETED  3.750E-02,  FRACTION OF STEP COMPLETED  1.273E-02
 STEP TIME COMPLETED       0.700    ,  TOTAL TIME COMPLETED        0.700    


  INCREMENT    11 STARTS. ATTEMPT NUMBER  1, TIME INCREMENT  0.100    
 
	SYMMETRIC ITERATIVE SOLVER RUNNING ON
 	1 HOST:        16 MPI RANKS x 1 THREAD
 	NUMBER OF EQUATIONS:     4002
 	NUMBER OF RHS:           1
 	KRYLOV METHOD:           CG
 	PRECONDITIONER:          PAMG
 	CONVERGENCE TOL:         1.000e-05
 	MAXIMUM ITERATIONS:      200
 	SETUP TIME:              0.1 SEC
 	APPLY TIME:              0.0 SEC
 
    NUMBER OF MATRIX-VECTOR MULTIPLICATIONS: 65
 
 ITERATIVE SOLVER CONVERGED.
 NUM. ITERATIONS =    6 RELATIVE RESIDUAL NORM =  7.956e-06 RHS NORM =  2.087e-02

               CONVERGENCE CHECKS FOR EQUILIBRIUM ITERATION     1


 AVERAGE FORCE                      4.994E-05   TIME AVG. FORCE       3.345E-05
 LARGEST SCALED RESIDUAL FORCE      4.246E-04   AT NODE          1   DOF  3
   INSTANCE: PART-1-1                                                                        
  CORRESPONDING RESIDUAL FORCE      4.246E-04
 LARGEST INCREMENT OF DISP.         7.581E-08   AT NODE       1200   DOF  1
   INSTANCE: PART-1-1                                                                        
 LARGEST CORRECTION TO DISP.       -3.250E-06   AT NODE       1723   DOF  2
   INSTANCE: PART-1-1                                                                        
          FORCE     EQUILIBRIUM NOT ACHIEVED WITHIN TOLERANCE.
 
	SYMMETRIC ITERATIVE SOLVER RUNNING ON
 	1 HOST:        16 MPI RANKS x 1 THREAD
 	NUMBER OF EQUATIONS:     4002
 	NUMBER OF RHS:           1
 	KRYLOV METHOD:           CG
 	PRECONDITIONER:          PAMG
 	CONVERGENCE TOL:         1.000e-05
 	MAXIMUM ITERATIONS:      200
 	SETUP TIME:              0.1 SEC
 	APPLY TIME:              0.0 SEC
 
    NUMBER OF MATRIX-VECTOR MULTIPLICATIONS: 65
 
 ITERATIVE SOLVER CONVERGED.
 NUM. ITERATIONS =    6 RELATIVE RESIDUAL NORM =  5.154e-06 RHS NORM =  6.419e-04

               CONVERGENCE CHECKS FOR EQUILIBRIUM ITERATION     2


 AVERAGE FORCE                      4.980E-05   TIME AVG. FORCE       3.344E-05
 LARGEST SCALED RESIDUAL FORCE      2.428E-05   AT NODE          1   DOF  3
   INSTANCE: PART-1-1                                                                        
  CORRESPONDING RESIDUAL FORCE      2.428E-05
 LARGEST INCREMENT OF DISP.         8.407E-08   AT NODE        116   DOF  3
   INSTANCE: PART-1-1                                                                        
 LARGEST CORRECTION TO DISP.        1.235E-07   AT NODE         65   DOF  3
   INSTANCE: PART-1-1                                                                        
          FORCE     EQUILIBRIUM NOT ACHIEVED WITHIN TOLERANCE.
 
	SYMMETRIC ITERATIVE SOLVER RUNNING ON
 	1 HOST:        16 MPI RANKS x 1 THREAD
 	NUMBER OF EQUATIONS:     4002
 	NUMBER OF RHS:           1
 	KRYLOV METHOD:           CG
 	PRECONDITIONER:          PAMG
 	CONVERGENCE TOL:         1.000e-05
 	MAXIMUM ITERATIONS:      200
 	SETUP TIME:              0.1 SEC
 	APPLY TIME:              0.0 SEC
 
    NUMBER OF MATRIX-VECTOR MULTIPLICATIONS: 65
 
 ITERATIVE SOLVER CONVERGED.
 NUM. ITERATIONS =    6 RELATIVE RESIDUAL NORM =  7.761e-06 RHS NORM =  4.344e-05

               CONVERGENCE CHECKS FOR EQUILIBRIUM ITERATION     3


 AVERAGE FORCE                      4.978E-05   TIME AVG. FORCE       3.344E-05
 LARGEST SCALED RESIDUAL FORCE      4.818E-07   AT NODE          1   DOF  3
   INSTANCE: PART-1-1                                                                        
  CORRESPONDING RESIDUAL FORCE      4.818E-07
 LARGEST INCREMENT OF DISP.         8.998E-08   AT NODE        116   DOF  3
   INSTANCE: PART-1-1                                                                        
 LARGEST CORRECTION TO DISP.        9.896E-09   AT NODE       1501   DOF  2
   INSTANCE: PART-1-1                                                                        
          FORCE     EQUILIBRIUM NOT ACHIEVED WITHIN TOLERANCE.
 
	SYMMETRIC ITERATIVE SOLVER RUNNING ON
 	1 HOST:        16 MPI RANKS x 1 THREAD
 	NUMBER OF EQUATIONS:     4002
 	NUMBER OF RHS:           1
 	KRYLOV METHOD:           CG
 	PRECONDITIONER:          PAMG
 	CONVERGENCE TOL:         1.000e-05
 	MAXIMUM ITERATIONS:      200
 	SETUP TIME:              0.1 SEC
 	APPLY TIME:              0.0 SEC
 
    NUMBER OF MATRIX-VECTOR MULTIPLICATIONS: 65
 
 ITERATIVE SOLVER CONVERGED.
 NUM. ITERATIONS =    6 RELATIVE RESIDUAL NORM =  8.146e-06 RHS NORM =  8.952e-07

               CONVERGENCE CHECKS FOR EQUILIBRIUM ITERATION     4


 AVERAGE FORCE                      4.978E-05   TIME AVG. FORCE       3.344E-05
 LARGEST SCALED RESIDUAL FORCE      1.074E-10   AT NODE       1135   DOF  2
   INSTANCE: PART-1-1                                                                        
  CORRESPONDING RESIDUAL FORCE      1.074E-10
 LARGEST INCREMENT OF DISP.         9.006E-08   AT NODE        116   DOF  3
   INSTANCE: PART-1-1                                                                        
 LARGEST CORRECTION TO DISP.        2.691E-10   AT NODE       1500   DOF  3
   INSTANCE: PART-1-1                                                                        
          THE FORCE     EQUILIBRIUM EQUATIONS HAVE CONVERGED
          TIME INCREMENT MAY NOW INCREASE TO    0.150    
          TIME INCREMENT REDUCED TO   0.100     TO MEET NEXT OUTPUT TIME POINT

 ITERATION SUMMARY FOR THE INCREMENT:   4 TOTAL ITERATIONS, OF WHICH
   0 ARE SEVERE DISCONTINUITY ITERATIONS AND  4 ARE EQUILIBRIUM ITERATIONS.

 TIME INCREMENT COMPLETED  0.100    ,  FRACTION OF STEP COMPLETED  1.455E-02
 STEP TIME COMPLETED       0.800    ,  TOTAL TIME COMPLETED        0.800    


  INCREMENT    12 STARTS. ATTEMPT NUMBER  1, TIME INCREMENT  0.100    
 
	SYMMETRIC ITERATIVE SOLVER RUNNING ON
 	1 HOST:        16 MPI RANKS x 1 THREAD
 	NUMBER OF EQUATIONS:     4002
 	NUMBER OF RHS:           1
 	KRYLOV METHOD:           CG
 	PRECONDITIONER:          PAMG
 	CONVERGENCE TOL:         1.000e-05
 	MAXIMUM ITERATIONS:      200
 	SETUP TIME:              0.1 SEC
 	APPLY TIME:              0.0 SEC
 
    NUMBER OF MATRIX-VECTOR MULTIPLICATIONS: 65
 
 ITERATIVE SOLVER CONVERGED.
 NUM. ITERATIONS =    6 RELATIVE RESIDUAL NORM =  4.479e-06 RHS NORM =  2.304e-02
 

 ***NOTE: USER SUBROUTINE REQUESTS A TIME INCREMENT CHANGE.


  INCREMENT    12 STARTS. ATTEMPT NUMBER  2, TIME INCREMENT  5.000E-02
 
	SYMMETRIC ITERATIVE SOLVER RUNNING ON
 	1 HOST:        16 MPI RANKS x 1 THREAD
 	NUMBER OF EQUATIONS:     4002
 	NUMBER OF RHS:           1
 	KRYLOV METHOD:           CG
 	PRECONDITIONER:          PAMG
 	CONVERGENCE TOL:         1.000e-05
 	MAXIMUM ITERATIONS:      200
 	SETUP TIME:              0.1 SEC
 	APPLY TIME:              0.0 SEC
 
    NUMBER OF MATRIX-VECTOR MULTIPLICATIONS: 65
 
 ITERATIVE SOLVER CONVERGED.
 NUM. ITERATIONS =    6 RELATIVE RESIDUAL NORM =  4.024e-06 RHS NORM =  1.179e-02

               CONVERGENCE CHECKS FOR EQUILIBRIUM ITERATION     1


 AVERAGE FORCE                      5.436E-05   TIME AVG. FORCE       3.518E-05
 LARGEST SCALED RESIDUAL FORCE      4.709E-04   AT NODE          1   DOF  3
   INSTANCE: PART-1-1                                                                        
  CORRESPONDING RESIDUAL FORCE      4.709E-04
 LARGEST INCREMENT OF DISP.         1.605E-06   AT NODE       1723   DOF  2
   INSTANCE: PART-1-1                                                                        
 LARGEST CORRECTION TO DISP.        1.603E-06   AT NODE       1723   DOF  2
   INSTANCE: PART-1-1                                                                        
          FORCE     EQUILIBRIUM NOT ACHIEVED WITHIN TOLERANCE.
 
	SYMMETRIC ITERATIVE SOLVER RUNNING ON
 	1 HOST:        16 MPI RANKS x 1 THREAD
 	NUMBER OF EQUATIONS:     4002
 	NUMBER OF RHS:           1
 	KRYLOV METHOD:           CG
 	PRECONDITIONER:          PAMG
 	CONVERGENCE TOL:         1.000e-05
 	MAXIMUM ITERATIONS:      200
 	SETUP TIME:              0.1 SEC
 	APPLY TIME:              0.0 SEC
 
    NUMBER OF MATRIX-VECTOR MULTIPLICATIONS: 65
 
 ITERATIVE SOLVER CONVERGED.
 NUM. ITERATIONS =    6 RELATIVE RESIDUAL NORM =  7.920e-06 RHS NORM =  7.422e-04

               CONVERGENCE CHECKS FOR EQUILIBRIUM ITERATION     2


 AVERAGE FORCE                      5.376E-05   TIME AVG. FORCE       3.513E-05
 LARGEST SCALED RESIDUAL FORCE      6.548E-06   AT NODE          1   DOF  3
   INSTANCE: PART-1-1                                                                        
  CORRESPONDING RESIDUAL FORCE      6.548E-06
 LARGEST INCREMENT OF DISP.         1.620E-06   AT NODE       1723   DOF  2
   INSTANCE: PART-1-1                                                                        
 LARGEST CORRECTION TO DISP.        2.690E-07   AT NODE        141   DOF  3
   INSTANCE: PART-1-1                                                                        
          FORCE     EQUILIBRIUM NOT ACHIEVED WITHIN TOLERANCE.
 
	SYMMETRIC ITERATIVE SOLVER RUNNING ON
 	1 HOST:        16 MPI RANKS x 1 THREAD
 	NUMBER OF EQUATIONS:     4002
 	NUMBER OF RHS:           1
 	KRYLOV METHOD:           CG
 	PRECONDITIONER:          PAMG
 	CONVERGENCE TOL:         1.000e-05
 	MAXIMUM ITERATIONS:      200
 	SETUP TIME:              0.1 SEC
 	APPLY TIME:              0.0 SEC
 
    NUMBER OF MATRIX-VECTOR MULTIPLICATIONS: 74
 
 ITERATIVE SOLVER CONVERGED.
 NUM. ITERATIONS =    7 RELATIVE RESIDUAL NORM =  1.812e-06 RHS NORM =  1.092e-05
 

 ***NOTE: USER SUBROUTINE REQUESTS A TIME INCREMENT CHANGE.


  INCREMENT    12 STARTS. ATTEMPT NUMBER  3, TIME INCREMENT  2.500E-02
 
	SYMMETRIC ITERATIVE SOLVER RUNNING ON
 	1 HOST:        16 MPI RANKS x 1 THREAD
 	NUMBER OF EQUATIONS:     4002
 	NUMBER OF RHS:           1
 	KRYLOV METHOD:           CG
 	PRECONDITIONER:          PAMG
 	CONVERGENCE TOL:         1.000e-05
 	MAXIMUM ITERATIONS:      200
 	SETUP TIME:              0.1 SEC
 	APPLY TIME:              0.0 SEC
 
    NUMBER OF MATRIX-VECTOR MULTIPLICATIONS: 65
 
 ITERATIVE SOLVER CONVERGED.
 NUM. ITERATIONS =    6 RELATIVE RESIDUAL NORM =  3.768e-06 RHS NORM =  6.029e-03

               CONVERGENCE CHECKS FOR EQUILIBRIUM ITERATION     1


 AVERAGE FORCE                      5.235E-05   TIME AVG. FORCE       3.501E-05
 LARGEST SCALED RESIDUAL FORCE     -1.984E-04   AT NODE       1596   DOF  1
   INSTANCE: PART-1-1                                                                        
  CORRESPONDING RESIDUAL FORCE     -1.984E-04
 LARGEST INCREMENT OF DISP.         8.003E-07   AT NODE       1723   DOF  2
   INSTANCE: PART-1-1                                                                        
 LARGEST CORRECTION TO DISP.        7.991E-07   AT NODE       1723   DOF  2
   INSTANCE: PART-1-1                                                                        
          FORCE     EQUILIBRIUM NOT ACHIEVED WITHIN TOLERANCE.
 
	SYMMETRIC ITERATIVE SOLVER RUNNING ON
 	1 HOST:        16 MPI RANKS x 1 THREAD
 	NUMBER OF EQUATIONS:     4002
 	NUMBER OF RHS:           1
 	KRYLOV METHOD:           CG
 	PRECONDITIONER:          PAMG
 	CONVERGENCE TOL:         1.000e-05
 	MAXIMUM ITERATIONS:      200
 	SETUP TIME:              0.1 SEC
 	APPLY TIME:              0.0 SEC
 
    NUMBER OF MATRIX-VECTOR MULTIPLICATIONS: 65
 
 ITERATIVE SOLVER CONVERGED.
 NUM. ITERATIONS =    6 RELATIVE RESIDUAL NORM =  6.455e-06 RHS NORM =  3.085e-04

               CONVERGENCE CHECKS FOR EQUILIBRIUM ITERATION     2


 AVERAGE FORCE                      5.214E-05   TIME AVG. FORCE       3.500E-05
 LARGEST SCALED RESIDUAL FORCE     -2.417E-06   AT NODE       1596   DOF  1
   INSTANCE: PART-1-1                                                                        
  CORRESPONDING RESIDUAL FORCE     -2.417E-06
 LARGEST INCREMENT OF DISP.         8.063E-07   AT NODE       1723   DOF  2
   INSTANCE: PART-1-1                                                                        
 LARGEST CORRECTION TO DISP.        1.089E-07   AT NODE        141   DOF  3
   INSTANCE: PART-1-1                                                                        
          FORCE     EQUILIBRIUM NOT ACHIEVED WITHIN TOLERANCE.
 
	SYMMETRIC ITERATIVE SOLVER RUNNING ON
 	1 HOST:        16 MPI RANKS x 1 THREAD
 	NUMBER OF EQUATIONS:     4002
 	NUMBER OF RHS:           1
 	KRYLOV METHOD:           CG
 	PRECONDITIONER:          PAMG
 	CONVERGENCE TOL:         1.000e-05
 	MAXIMUM ITERATIONS:      200
 	SETUP TIME:              0.1 SEC
 	APPLY TIME:              0.0 SEC
 
    NUMBER OF MATRIX-VECTOR MULTIPLICATIONS: 65
 
 ITERATIVE SOLVER CONVERGED.
 NUM. ITERATIONS =    6 RELATIVE RESIDUAL NORM =  8.282e-06 RHS NORM =  4.905e-06

               CONVERGENCE CHECKS FOR EQUILIBRIUM ITERATION     3


 AVERAGE FORCE                      5.214E-05   TIME AVG. FORCE       3.500E-05
 LARGEST SCALED RESIDUAL FORCE      1.676E-09   AT NODE          1   DOF  3
   INSTANCE: PART-1-1                                                                        
  CORRESPONDING RESIDUAL FORCE      1.676E-09
 LARGEST INCREMENT OF DISP.         8.065E-07   AT NODE       1723   DOF  2
   INSTANCE: PART-1-1                                                                        
 LARGEST CORRECTION TO DISP.        1.856E-09   AT NODE         49   DOF  3
   INSTANCE: PART-1-1                                                                        
          THE FORCE     EQUILIBRIUM EQUATIONS HAVE CONVERGED
          TIME INCREMENT MAY NOW INCREASE TO    3.750E-02

 ITERATION SUMMARY FOR THE INCREMENT:   3 TOTAL ITERATIONS, OF WHICH
   0 ARE SEVERE DISCONTINUITY ITERATIONS AND  3 ARE EQUILIBRIUM ITERATIONS.

 TIME INCREMENT COMPLETED  2.500E-02,  FRACTION OF STEP COMPLETED  1.500E-02
 STEP TIME COMPLETED       0.825    ,  TOTAL TIME COMPLETED        0.825    


  INCREMENT    13 STARTS. ATTEMPT NUMBER  1, TIME INCREMENT  3.750E-02
 
	SYMMETRIC ITERATIVE SOLVER RUNNING ON
 	1 HOST:        16 MPI RANKS x 1 THREAD
 	NUMBER OF EQUATIONS:     4002
 	NUMBER OF RHS:           1
 	KRYLOV METHOD:           CG
 	PRECONDITIONER:          PAMG
 	CONVERGENCE TOL:         1.000e-05
 	MAXIMUM ITERATIONS:      200
 	SETUP TIME:              0.1 SEC
 	APPLY TIME:              0.0 SEC
 
    NUMBER OF MATRIX-VECTOR MULTIPLICATIONS: 65
 
 ITERATIVE SOLVER CONVERGED.
 NUM. ITERATIONS =    6 RELATIVE RESIDUAL NORM =  8.015e-06 RHS NORM =  4.949e-04

               CONVERGENCE CHECKS FOR EQUILIBRIUM ITERATION     1


 AVERAGE FORCE                      5.468E-05   TIME AVG. FORCE       3.651E-05
 LARGEST SCALED RESIDUAL FORCE      4.633E-06   AT NODE          1   DOF  3
   INSTANCE: PART-1-1                                                                        
  CORRESPONDING RESIDUAL FORCE      4.633E-06
 LARGEST INCREMENT OF DISP.         1.221E-06   AT NODE        140   DOF  2
   INSTANCE: PART-1-1                                                                        
 LARGEST CORRECTION TO DISP.        1.683E-07   AT NODE        115   DOF  3
   INSTANCE: PART-1-1                                                                        
          FORCE     EQUILIBRIUM NOT ACHIEVED WITHIN TOLERANCE.
 
	SYMMETRIC ITERATIVE SOLVER RUNNING ON
 	1 HOST:        16 MPI RANKS x 1 THREAD
 	NUMBER OF EQUATIONS:     4002
 	NUMBER OF RHS:           1
 	KRYLOV METHOD:           CG
 	PRECONDITIONER:          PAMG
 	CONVERGENCE TOL:         1.000e-05
 	MAXIMUM ITERATIONS:      200
 	SETUP TIME:              0.1 SEC
 	APPLY TIME:              0.0 SEC
 
    NUMBER OF MATRIX-VECTOR MULTIPLICATIONS: 74
 
 ITERATIVE SOLVER CONVERGED.
 NUM. ITERATIONS =    7 RELATIVE RESIDUAL NORM =  1.951e-06 RHS NORM =  7.066e-06

               CONVERGENCE CHECKS FOR EQUILIBRIUM ITERATION     2


 AVERAGE FORCE                      5.467E-05   TIME AVG. FORCE       3.651E-05
 LARGEST SCALED RESIDUAL FORCE      8.234E-09   AT NODE          1   DOF  3
   INSTANCE: PART-1-1                                                                        
  CORRESPONDING RESIDUAL FORCE      8.234E-09
 LARGEST INCREMENT OF DISP.         1.221E-06   AT NODE        140   DOF  2
   INSTANCE: PART-1-1                                                                        
 LARGEST CORRECTION TO DISP.        3.301E-09   AT NODE         63   DOF  2
   INSTANCE: PART-1-1                                                                        
          THE FORCE     EQUILIBRIUM EQUATIONS HAVE CONVERGED
          TIME INCREMENT MAY NOW INCREASE TO    5.625E-02
          TIME INCREMENT REDUCED TO   3.750E-02 TO MEET NEXT OUTPUT TIME POINT

 ITERATION SUMMARY FOR THE INCREMENT:   2 TOTAL ITERATIONS, OF WHICH
   0 ARE SEVERE DISCONTINUITY ITERATIONS AND  2 ARE EQUILIBRIUM ITERATIONS.

 TIME INCREMENT COMPLETED  3.750E-02,  FRACTION OF STEP COMPLETED  1.568E-02
 STEP TIME COMPLETED       0.863    ,  TOTAL TIME COMPLETED        0.863    


  INCREMENT    14 STARTS. ATTEMPT NUMBER  1, TIME INCREMENT  3.750E-02
 
	SYMMETRIC ITERATIVE SOLVER RUNNING ON
 	1 HOST:        16 MPI RANKS x 1 THREAD
 	NUMBER OF EQUATIONS:     4002
 	NUMBER OF RHS:           1
 	KRYLOV METHOD:           CG
 	PRECONDITIONER:          PAMG
 	CONVERGENCE TOL:         1.000e-05
 	MAXIMUM ITERATIONS:      200
 	SETUP TIME:              0.1 SEC
 	APPLY TIME:              0.0 SEC
 
    NUMBER OF MATRIX-VECTOR MULTIPLICATIONS: 74
 
 ITERATIVE SOLVER CONVERGED.
 NUM. ITERATIONS =    7 RELATIVE RESIDUAL NORM =  1.796e-06 RHS NORM =  1.165e-04

               CONVERGENCE CHECKS FOR EQUILIBRIUM ITERATION     1


 AVERAGE FORCE                      5.710E-05   TIME AVG. FORCE       3.798E-05
 LARGEST SCALED RESIDUAL FORCE      1.065E-06   AT NODE          1   DOF  3
   INSTANCE: PART-1-1                                                                        
  CORRESPONDING RESIDUAL FORCE      1.065E-06
 LARGEST INCREMENT OF DISP.         1.224E-06   AT NODE        140   DOF  2
   INSTANCE: PART-1-1                                                                        
 LARGEST CORRECTION TO DISP.        4.359E-08   AT NODE         65   DOF  3
   INSTANCE: PART-1-1                                                                        
          FORCE     EQUILIBRIUM NOT ACHIEVED WITHIN TOLERANCE.
 
	SYMMETRIC ITERATIVE SOLVER RUNNING ON
 	1 HOST:        16 MPI RANKS x 1 THREAD
 	NUMBER OF EQUATIONS:     4002
 	NUMBER OF RHS:           1
 	KRYLOV METHOD:           CG
 	PRECONDITIONER:          PAMG
 	CONVERGENCE TOL:         1.000e-05
 	MAXIMUM ITERATIONS:      200
 	SETUP TIME:              0.1 SEC
 	APPLY TIME:              0.0 SEC
 
    NUMBER OF MATRIX-VECTOR MULTIPLICATIONS: 74
 
 ITERATIVE SOLVER CONVERGED.
 NUM. ITERATIONS =    7 RELATIVE RESIDUAL NORM =  2.538e-06 RHS NORM =  2.124e-06

               CONVERGENCE CHECKS FOR EQUILIBRIUM ITERATION     2


 AVERAGE FORCE                      5.710E-05   TIME AVG. FORCE       3.798E-05
 LARGEST SCALED RESIDUAL FORCE      8.014E-10   AT NODE        209   DOF  3
   INSTANCE: PART-1-1                                                                        
  CORRESPONDING RESIDUAL FORCE      8.014E-10
 LARGEST INCREMENT OF DISP.         1.224E-06   AT NODE        140   DOF  2
   INSTANCE: PART-1-1                                                                        
 LARGEST CORRECTION TO DISP.        1.745E-09   AT NODE         65   DOF  3
   INSTANCE: PART-1-1                                                                        
          THE FORCE     EQUILIBRIUM EQUATIONS HAVE CONVERGED
          TIME INCREMENT MAY NOW INCREASE TO    0.100    

 ITERATION SUMMARY FOR THE INCREMENT:   2 TOTAL ITERATIONS, OF WHICH
   0 ARE SEVERE DISCONTINUITY ITERATIONS AND  2 ARE EQUILIBRIUM ITERATIONS.

 TIME INCREMENT COMPLETED  3.750E-02,  FRACTION OF STEP COMPLETED  1.636E-02
 STEP TIME COMPLETED       0.900    ,  TOTAL TIME COMPLETED        0.900    


  INCREMENT    15 STARTS. ATTEMPT NUMBER  1, TIME INCREMENT  0.100    
 
	SYMMETRIC ITERATIVE SOLVER RUNNING ON
 	1 HOST:        16 MPI RANKS x 1 THREAD
 	NUMBER OF EQUATIONS:     4002
 	NUMBER OF RHS:           1
 	KRYLOV METHOD:           CG
 	PRECONDITIONER:          PAMG
 	CONVERGENCE TOL:         1.000e-05
 	MAXIMUM ITERATIONS:      200
 	SETUP TIME:              0.1 SEC
 	APPLY TIME:              0.0 SEC
 
    NUMBER OF MATRIX-VECTOR MULTIPLICATIONS: 74
 
 ITERATIVE SOLVER CONVERGED.
 NUM. ITERATIONS =    7 RELATIVE RESIDUAL NORM =  2.874e-06 RHS NORM =  4.653e-04
 

 ***NOTE: USER SUBROUTINE REQUESTS A TIME INCREMENT CHANGE.


  INCREMENT    15 STARTS. ATTEMPT NUMBER  2, TIME INCREMENT  5.000E-02
 
	SYMMETRIC ITERATIVE SOLVER RUNNING ON
 	1 HOST:        16 MPI RANKS x 1 THREAD
 	NUMBER OF EQUATIONS:     4002
 	NUMBER OF RHS:           1
 	KRYLOV METHOD:           CG
 	PRECONDITIONER:          PAMG
 	CONVERGENCE TOL:         1.000e-05
 	MAXIMUM ITERATIONS:      200
 	SETUP TIME:              0.1 SEC
 	APPLY TIME:              0.0 SEC
 
    NUMBER OF MATRIX-VECTOR MULTIPLICATIONS: 74
 
 ITERATIVE SOLVER CONVERGED.
 NUM. ITERATIONS =    7 RELATIVE RESIDUAL NORM =  2.275e-06 RHS NORM =  1.550e-04

               CONVERGENCE CHECKS FOR EQUILIBRIUM ITERATION     1


 AVERAGE FORCE                      6.014E-05   TIME AVG. FORCE       3.946E-05
 LARGEST SCALED RESIDUAL FORCE      1.327E-06   AT NODE          1   DOF  3
   INSTANCE: PART-1-1                                                                        
  CORRESPONDING RESIDUAL FORCE      1.327E-06
 LARGEST INCREMENT OF DISP.         1.639E-06   AT NODE        140   DOF  2
   INSTANCE: PART-1-1                                                                        
 LARGEST CORRECTION TO DISP.        6.125E-08   AT NODE         65   DOF  3
   INSTANCE: PART-1-1                                                                        
          FORCE     EQUILIBRIUM NOT ACHIEVED WITHIN TOLERANCE.
 
	SYMMETRIC ITERATIVE SOLVER RUNNING ON
 	1 HOST:        16 MPI RANKS x 1 THREAD
 	NUMBER OF EQUATIONS:     4002
 	NUMBER OF RHS:           1
 	KRYLOV METHOD:           CG
 	PRECONDITIONER:          PAMG
 	CONVERGENCE TOL:         1.000e-05
 	MAXIMUM ITERATIONS:      200
 	SETUP TIME:              0.1 SEC
 	APPLY TIME:              0.0 SEC
 
    NUMBER OF MATRIX-VECTOR MULTIPLICATIONS: 74
 
 ITERATIVE SOLVER CONVERGED.
 NUM. ITERATIONS =    7 RELATIVE RESIDUAL NORM =  3.049e-06 RHS NORM =  2.815e-06

               CONVERGENCE CHECKS FOR EQUILIBRIUM ITERATION     2


 AVERAGE FORCE                      6.014E-05   TIME AVG. FORCE       3.946E-05
 LARGEST SCALED RESIDUAL FORCE      2.138E-09   AT NODE        340   DOF  1
   INSTANCE: PART-1-1                                                                        
  CORRESPONDING RESIDUAL FORCE      2.138E-09
 LARGEST INCREMENT OF DISP.         1.639E-06   AT NODE        140   DOF  2
   INSTANCE: PART-1-1                                                                        
 LARGEST CORRECTION TO DISP.        2.004E-09   AT NODE        196   DOF  3
   INSTANCE: PART-1-1                                                                        
          THE FORCE     EQUILIBRIUM EQUATIONS HAVE CONVERGED
          TIME INCREMENT MAY NOW INCREASE TO    7.500E-02
          TIME INCREMENT REDUCED TO   5.000E-02 TO MEET NEXT OUTPUT TIME POINT

 ITERATION SUMMARY FOR THE INCREMENT:   2 TOTAL ITERATIONS, OF WHICH
   0 ARE SEVERE DISCONTINUITY ITERATIONS AND  2 ARE EQUILIBRIUM ITERATIONS.

 TIME INCREMENT COMPLETED  5.000E-02,  FRACTION OF STEP COMPLETED  1.727E-02
 STEP TIME COMPLETED       0.950    ,  TOTAL TIME COMPLETED        0.950    


  INCREMENT    16 STARTS. ATTEMPT NUMBER  1, TIME INCREMENT  5.000E-02
 
	SYMMETRIC ITERATIVE SOLVER RUNNING ON
 	1 HOST:        16 MPI RANKS x 1 THREAD
 	NUMBER OF EQUATIONS:     4002
 	NUMBER OF RHS:           1
 	KRYLOV METHOD:           CG
 	PRECONDITIONER:          PAMG
 	CONVERGENCE TOL:         1.000e-05
 	MAXIMUM ITERATIONS:      200
 	SETUP TIME:              0.1 SEC
 	APPLY TIME:              0.0 SEC
 
    NUMBER OF MATRIX-VECTOR MULTIPLICATIONS: 74
 
 ITERATIVE SOLVER CONVERGED.
 NUM. ITERATIONS =    7 RELATIVE RESIDUAL NORM =  3.067e-06 RHS NORM =  8.812e-05

               CONVERGENCE CHECKS FOR EQUILIBRIUM ITERATION     1


 AVERAGE FORCE                      6.314E-05   TIME AVG. FORCE       4.094E-05
 LARGEST SCALED RESIDUAL FORCE      5.921E-07   AT NODE          1   DOF  3
   INSTANCE: PART-1-1                                                                        
  CORRESPONDING RESIDUAL FORCE      5.921E-07
 LARGEST INCREMENT OF DISP.         1.642E-06   AT NODE        283   DOF  2
   INSTANCE: PART-1-1                                                                        
 LARGEST CORRECTION TO DISP.        3.618E-08   AT NODE        740   DOF  2
   INSTANCE: PART-1-1                                                                        
          FORCE     EQUILIBRIUM NOT ACHIEVED WITHIN TOLERANCE.
 
	SYMMETRIC ITERATIVE SOLVER RUNNING ON
 	1 HOST:        16 MPI RANKS x 1 THREAD
 	NUMBER OF EQUATIONS:     4002
 	NUMBER OF RHS:           1
 	KRYLOV METHOD:           CG
 	PRECONDITIONER:          PAMG
 	CONVERGENCE TOL:         1.000e-05
 	MAXIMUM ITERATIONS:      200
 	SETUP TIME:              0.1 SEC
 	APPLY TIME:              0.0 SEC
 
    NUMBER OF MATRIX-VECTOR MULTIPLICATIONS: 74
 
 ITERATIVE SOLVER CONVERGED.
 NUM. ITERATIONS =    7 RELATIVE RESIDUAL NORM =  2.836e-06 RHS NORM =  1.891e-06

               CONVERGENCE CHECKS FOR EQUILIBRIUM ITERATION     2


 AVERAGE FORCE                      6.314E-05   TIME AVG. FORCE       4.094E-05
 LARGEST SCALED RESIDUAL FORCE     -8.091E-10   AT NODE       1333   DOF  3
   INSTANCE: PART-1-1                                                                        
  CORRESPONDING RESIDUAL FORCE     -8.091E-10
 LARGEST INCREMENT OF DISP.         1.642E-06   AT NODE        283   DOF  2
   INSTANCE: PART-1-1                                                                        
 LARGEST CORRECTION TO DISP.        1.006E-09   AT NODE        363   DOF  3
   INSTANCE: PART-1-1                                                                        
          THE FORCE     EQUILIBRIUM EQUATIONS HAVE CONVERGED
          TIME INCREMENT MAY NOW INCREASE TO    0.100    

 ITERATION SUMMARY FOR THE INCREMENT:   2 TOTAL ITERATIONS, OF WHICH
   0 ARE SEVERE DISCONTINUITY ITERATIONS AND  2 ARE EQUILIBRIUM ITERATIONS.

 TIME INCREMENT COMPLETED  5.000E-02,  FRACTION OF STEP COMPLETED  1.818E-02
 STEP TIME COMPLETED        1.00    ,  TOTAL TIME COMPLETED         1.00    


  INCREMENT    17 STARTS. ATTEMPT NUMBER  1, TIME INCREMENT  0.100    
 
	SYMMETRIC ITERATIVE SOLVER RUNNING ON
 	1 HOST:        16 MPI RANKS x 1 THREAD
 	NUMBER OF EQUATIONS:     4002
 	NUMBER OF RHS:           1
 	KRYLOV METHOD:           CG
 	PRECONDITIONER:          PAMG
 	CONVERGENCE TOL:         1.000e-05
 	MAXIMUM ITERATIONS:      200
 	SETUP TIME:              0.1 SEC
 	APPLY TIME:              0.0 SEC
 
    NUMBER OF MATRIX-VECTOR MULTIPLICATIONS: 74
 
 ITERATIVE SOLVER CONVERGED.
 NUM. ITERATIONS =    7 RELATIVE RESIDUAL NORM =  3.948e-06 RHS NORM =  2.951e-04
 

 ***NOTE: USER SUBROUTINE REQUESTS A TIME INCREMENT CHANGE.


  INCREMENT    17 STARTS. ATTEMPT NUMBER  2, TIME INCREMENT  5.000E-02
 
	SYMMETRIC ITERATIVE SOLVER RUNNING ON
 	1 HOST:        16 MPI RANKS x 1 THREAD
 	NUMBER OF EQUATIONS:     4002
 	NUMBER OF RHS:           1
 	KRYLOV METHOD:           CG
 	PRECONDITIONER:          PAMG
 	CONVERGENCE TOL:         1.000e-05
 	MAXIMUM ITERATIONS:      200
 	SETUP TIME:              0.1 SEC
 	APPLY TIME:              0.0 SEC
 
    NUMBER OF MATRIX-VECTOR MULTIPLICATIONS: 74
 
 ITERATIVE SOLVER CONVERGED.
 NUM. ITERATIONS =    7 RELATIVE RESIDUAL NORM =  3.066e-06 RHS NORM =  7.841e-05

               CONVERGENCE CHECKS FOR EQUILIBRIUM ITERATION     1


 AVERAGE FORCE                      6.606E-05   TIME AVG. FORCE       4.241E-05
 LARGEST SCALED RESIDUAL FORCE      3.291E-07   AT NODE          1   DOF  3
   INSTANCE: PART-1-1                                                                        
  CORRESPONDING RESIDUAL FORCE      3.291E-07
 LARGEST INCREMENT OF DISP.         1.645E-06   AT NODE        283   DOF  2
   INSTANCE: PART-1-1                                                                        
 LARGEST CORRECTION TO DISP.        3.320E-08   AT NODE        881   DOF  2
   INSTANCE: PART-1-1                                                                        
          FORCE     EQUILIBRIUM NOT ACHIEVED WITHIN TOLERANCE.
 
	SYMMETRIC ITERATIVE SOLVER RUNNING ON
 	1 HOST:        16 MPI RANKS x 1 THREAD
 	NUMBER OF EQUATIONS:     4002
 	NUMBER OF RHS:           1
 	KRYLOV METHOD:           CG
 	PRECONDITIONER:          PAMG
 	CONVERGENCE TOL:         1.000e-05
 	MAXIMUM ITERATIONS:      200
 	SETUP TIME:              0.1 SEC
 	APPLY TIME:              0.0 SEC
 
    NUMBER OF MATRIX-VECTOR MULTIPLICATIONS: 74
 
 ITERATIVE SOLVER CONVERGED.
 NUM. ITERATIONS =    7 RELATIVE RESIDUAL NORM =  2.562e-06 RHS NORM =  1.400e-06

               CONVERGENCE CHECKS FOR EQUILIBRIUM ITERATION     2


 AVERAGE FORCE                      6.606E-05   TIME AVG. FORCE       4.241E-05
 LARGEST SCALED RESIDUAL FORCE      4.962E-10   AT NODE       1717   DOF  3
   INSTANCE: PART-1-1                                                                        
  CORRESPONDING RESIDUAL FORCE      4.962E-10
 LARGEST INCREMENT OF DISP.         1.645E-06   AT NODE        283   DOF  2
   INSTANCE: PART-1-1                                                                        
 LARGEST CORRECTION TO DISP.        7.345E-10   AT NODE        709   DOF  3
   INSTANCE: PART-1-1                                                                        
          THE FORCE     EQUILIBRIUM EQUATIONS HAVE CONVERGED
          TIME INCREMENT MAY NOW INCREASE TO    7.500E-02
          TIME INCREMENT REDUCED TO   5.000E-02 TO MEET NEXT OUTPUT TIME POINT

 ITERATION SUMMARY FOR THE INCREMENT:   2 TOTAL ITERATIONS, OF WHICH
   0 ARE SEVERE DISCONTINUITY ITERATIONS AND  2 ARE EQUILIBRIUM ITERATIONS.

 TIME INCREMENT COMPLETED  5.000E-02,  FRACTION OF STEP COMPLETED  1.909E-02
 STEP TIME COMPLETED        1.05    ,  TOTAL TIME COMPLETED         1.05    


  INCREMENT    18 STARTS. ATTEMPT NUMBER  1, TIME INCREMENT  5.000E-02
 
	SYMMETRIC ITERATIVE SOLVER RUNNING ON
 	1 HOST:        16 MPI RANKS x 1 THREAD
 	NUMBER OF EQUATIONS:     4002
 	NUMBER OF RHS:           1
 	KRYLOV METHOD:           CG
 	PRECONDITIONER:          PAMG
 	CONVERGENCE TOL:         1.000e-05
 	MAXIMUM ITERATIONS:      200
 	SETUP TIME:              0.1 SEC
 	APPLY TIME:              0.0 SEC
 
    NUMBER OF MATRIX-VECTOR MULTIPLICATIONS: 74
 
 ITERATIVE SOLVER CONVERGED.
 NUM. ITERATIONS =    7 RELATIVE RESIDUAL NORM =  2.554e-06 RHS NORM =  6.732e-05

               CONVERGENCE CHECKS FOR EQUILIBRIUM ITERATION     1


 AVERAGE FORCE                      6.891E-05   TIME AVG. FORCE       4.389E-05
 LARGEST SCALED RESIDUAL FORCE      2.542E-07   AT NODE       1717   DOF  3
   INSTANCE: PART-1-1                                                                        
  CORRESPONDING RESIDUAL FORCE      2.542E-07
 LARGEST INCREMENT OF DISP.         1.654E-06   AT NODE        856   DOF  2
   INSTANCE: PART-1-1                                                                        
 LARGEST CORRECTION TO DISP.       -3.269E-08   AT NODE        707   DOF  1
   INSTANCE: PART-1-1                                                                        
          FORCE     EQUILIBRIUM NOT ACHIEVED WITHIN TOLERANCE.
 
	SYMMETRIC ITERATIVE SOLVER RUNNING ON
 	1 HOST:        16 MPI RANKS x 1 THREAD
 	NUMBER OF EQUATIONS:     4002
 	NUMBER OF RHS:           1
 	KRYLOV METHOD:           CG
 	PRECONDITIONER:          PAMG
 	CONVERGENCE TOL:         1.000e-05
 	MAXIMUM ITERATIONS:      200
 	SETUP TIME:              0.1 SEC
 	APPLY TIME:              0.0 SEC
 
    NUMBER OF MATRIX-VECTOR MULTIPLICATIONS: 74
 
 ITERATIVE SOLVER CONVERGED.
 NUM. ITERATIONS =    7 RELATIVE RESIDUAL NORM =  2.300e-06 RHS NORM =  1.062e-06

               CONVERGENCE CHECKS FOR EQUILIBRIUM ITERATION     2


 AVERAGE FORCE                      6.891E-05   TIME AVG. FORCE       4.389E-05
 LARGEST SCALED RESIDUAL FORCE     -5.522E-10   AT NODE       1717   DOF  1
   INSTANCE: PART-1-1                                                                        
  CORRESPONDING RESIDUAL FORCE     -5.522E-10
 LARGEST INCREMENT OF DISP.         1.654E-06   AT NODE        856   DOF  2
   INSTANCE: PART-1-1                                                                        
 LARGEST CORRECTION TO DISP.        6.343E-10   AT NODE        709   DOF  3
   INSTANCE: PART-1-1                                                                        
          THE FORCE     EQUILIBRIUM EQUATIONS HAVE CONVERGED
          TIME INCREMENT MAY NOW INCREASE TO    0.100    

 ITERATION SUMMARY FOR THE INCREMENT:   2 TOTAL ITERATIONS, OF WHICH
   0 ARE SEVERE DISCONTINUITY ITERATIONS AND  2 ARE EQUILIBRIUM ITERATIONS.

 TIME INCREMENT COMPLETED  5.000E-02,  FRACTION OF STEP COMPLETED  2.000E-02
 STEP TIME COMPLETED        1.10    ,  TOTAL TIME COMPLETED         1.10    


  INCREMENT    19 STARTS. ATTEMPT NUMBER  1, TIME INCREMENT  0.100    
 
	SYMMETRIC ITERATIVE SOLVER RUNNING ON
 	1 HOST:        16 MPI RANKS x 1 THREAD
 	NUMBER OF EQUATIONS:     4002
 	NUMBER OF RHS:           1
 	KRYLOV METHOD:           CG
 	PRECONDITIONER:          PAMG
 	CONVERGENCE TOL:         1.000e-05
 	MAXIMUM ITERATIONS:      200
 	SETUP TIME:              0.1 SEC
 	APPLY TIME:              0.0 SEC
 
    NUMBER OF MATRIX-VECTOR MULTIPLICATIONS: 74
 
 ITERATIVE SOLVER CONVERGED.
 NUM. ITERATIONS =    7 RELATIVE RESIDUAL NORM =  3.598e-06 RHS NORM =  2.502e-04

               CONVERGENCE CHECKS FOR EQUILIBRIUM ITERATION     1


 AVERAGE FORCE                      7.412E-05   TIME AVG. FORCE       4.548E-05
 LARGEST SCALED RESIDUAL FORCE      1.876E-06   AT NODE          1   DOF  3
   INSTANCE: PART-1-1                                                                        
  CORRESPONDING RESIDUAL FORCE      1.876E-06
 LARGEST INCREMENT OF DISP.         3.364E-06   AT NODE        856   DOF  2
   INSTANCE: PART-1-1                                                                        
 LARGEST CORRECTION TO DISP.        1.154E-07   AT NODE        363   DOF  3
   INSTANCE: PART-1-1                                                                        
          FORCE     EQUILIBRIUM NOT ACHIEVED WITHIN TOLERANCE.
 
	SYMMETRIC ITERATIVE SOLVER RUNNING ON
 	1 HOST:        16 MPI RANKS x 1 THREAD
 	NUMBER OF EQUATIONS:     4002
 	NUMBER OF RHS:           1
 	KRYLOV METHOD:           CG
 	PRECONDITIONER:          PAMG
 	CONVERGENCE TOL:         1.000e-05
 	MAXIMUM ITERATIONS:      200
 	SETUP TIME:              0.1 SEC
 	APPLY TIME:              0.0 SEC
 
    NUMBER OF MATRIX-VECTOR MULTIPLICATIONS: 74
 
 ITERATIVE SOLVER CONVERGED.
 NUM. ITERATIONS =    7 RELATIVE RESIDUAL NORM =  2.605e-06 RHS NORM =  6.928e-06

               CONVERGENCE CHECKS FOR EQUILIBRIUM ITERATION     2


 AVERAGE FORCE                      7.412E-05   TIME AVG. FORCE       4.548E-05
 LARGEST SCALED RESIDUAL FORCE      1.184E-08   AT NODE        752   DOF  3
   INSTANCE: PART-1-1                                                                        
  CORRESPONDING RESIDUAL FORCE      1.184E-08
 LARGEST INCREMENT OF DISP.         3.365E-06   AT NODE        856   DOF  2
   INSTANCE: PART-1-1                                                                        
 LARGEST CORRECTION TO DISP.        4.291E-09   AT NODE        728   DOF  3
   INSTANCE: PART-1-1                                                                        
          THE FORCE     EQUILIBRIUM EQUATIONS HAVE CONVERGED
          TIME INCREMENT MAY NOW INCREASE TO    0.150    
          TIME INCREMENT REDUCED TO   0.100     TO MEET NEXT OUTPUT TIME POINT

 ITERATION SUMMARY FOR THE INCREMENT:   2 TOTAL ITERATIONS, OF WHICH
   0 ARE SEVERE DISCONTINUITY ITERATIONS AND  2 ARE EQUILIBRIUM ITERATIONS.

 TIME INCREMENT COMPLETED  0.100    ,  FRACTION OF STEP COMPLETED  2.182E-02
 STEP TIME COMPLETED        1.20    ,  TOTAL TIME COMPLETED         1.20    


[...]
 	KRYLOV METHOD:           CG
 	PRECONDITIONER:          PAMG
 	CONVERGENCE TOL:         1.000e-05
 	MAXIMUM ITERATIONS:      200
 	SETUP TIME:              0.1 SEC
 	APPLY TIME:              0.0 SEC
 
    NUMBER OF MATRIX-VECTOR MULTIPLICATIONS: 65
 
 ITERATIVE SOLVER CONVERGED.
 NUM. ITERATIONS =    6 RELATIVE RESIDUAL NORM =  4.806e-06 RHS NORM =  2.577e-14
 

 ***NOTE: USER SUBROUTINE REQUESTS A TIME INCREMENT CHANGE.


  INCREMENT   354 STARTS. ATTEMPT NUMBER 19, TIME INCREMENT  5.602E-15
 
	SYMMETRIC ITERATIVE SOLVER RUNNING ON
 	1 HOST:        16 MPI RANKS x 1 THREAD
 	NUMBER OF EQUATIONS:     4002
 	NUMBER OF RHS:           1
 	KRYLOV METHOD:           CG
 	PRECONDITIONER:          PAMG
 	CONVERGENCE TOL:         1.000e-05
 	MAXIMUM ITERATIONS:      200
 	SETUP TIME:              0.1 SEC
 	APPLY TIME:              0.0 SEC
 
    NUMBER OF MATRIX-VECTOR MULTIPLICATIONS: 65
 
 ITERATIVE SOLVER CONVERGED.
 NUM. ITERATIONS =    6 RELATIVE RESIDUAL NORM =  4.922e-06 RHS NORM =  2.164e-14
 

 ***NOTE: USER SUBROUTINE REQUESTS A TIME INCREMENT CHANGE.


  INCREMENT   354 STARTS. ATTEMPT NUMBER 20, TIME INCREMENT  2.801E-15
 
	SYMMETRIC ITERATIVE SOLVER RUNNING ON
 	1 HOST:        16 MPI RANKS x 1 THREAD
 	NUMBER OF EQUATIONS:     4002
 	NUMBER OF RHS:           1
 	KRYLOV METHOD:           CG
 	PRECONDITIONER:          PAMG
 	CONVERGENCE TOL:         1.000e-05
 	MAXIMUM ITERATIONS:      200
 	SETUP TIME:              0.1 SEC
 	APPLY TIME:              0.0 SEC
 
    NUMBER OF MATRIX-VECTOR MULTIPLICATIONS: 65
 
 ITERATIVE SOLVER CONVERGED.
 NUM. ITERATIONS =    6 RELATIVE RESIDUAL NORM =  5.204e-06 RHS NORM =  2.007e-14
 

 ***NOTE: USER SUBROUTINE REQUESTS A TIME INCREMENT CHANGE.


  INCREMENT   354 STARTS. ATTEMPT NUMBER 21, TIME INCREMENT  1.401E-15
 
	SYMMETRIC ITERATIVE SOLVER RUNNING ON
 	1 HOST:        16 MPI RANKS x 1 THREAD
 	NUMBER OF EQUATIONS:     4002
 	NUMBER OF RHS:           1
 	KRYLOV METHOD:           CG
 	PRECONDITIONER:          PAMG
 	CONVERGENCE TOL:         1.000e-05
 	MAXIMUM ITERATIONS:      200
 	SETUP TIME:              0.1 SEC
 	APPLY TIME:              0.0 SEC
 
    NUMBER OF MATRIX-VECTOR MULTIPLICATIONS: 65
 
 ITERATIVE SOLVER CONVERGED.
 NUM. ITERATIONS =    6 RELATIVE RESIDUAL NORM =  5.165e-06 RHS NORM =  2.005e-14
 

 ***NOTE: USER SUBROUTINE REQUESTS A TIME INCREMENT CHANGE.


  INCREMENT   354 STARTS. ATTEMPT NUMBER 22, TIME INCREMENT  7.003E-16
 
	SYMMETRIC ITERATIVE SOLVER RUNNING ON
 	1 HOST:        16 MPI RANKS x 1 THREAD
 	NUMBER OF EQUATIONS:     4002
 	NUMBER OF RHS:           1
 	KRYLOV METHOD:           CG
 	PRECONDITIONER:          PAMG
 	CONVERGENCE TOL:         1.000e-05
 	MAXIMUM ITERATIONS:      200
 	SETUP TIME:              0.1 SEC
 	APPLY TIME:              0.0 SEC
 
    NUMBER OF MATRIX-VECTOR MULTIPLICATIONS: 65
 
 ITERATIVE SOLVER CONVERGED.
 NUM. ITERATIONS =    6 RELATIVE RESIDUAL NORM =  5.144e-06 RHS NORM =  2.005e-14
 

 ***NOTE: USER SUBROUTINE REQUESTS A TIME INCREMENT CHANGE.


  INCREMENT   354 STARTS. ATTEMPT NUMBER 23, TIME INCREMENT  3.501E-16
 
	SYMMETRIC ITERATIVE SOLVER RUNNING ON
 	1 HOST:        16 MPI RANKS x 1 THREAD
 	NUMBER OF EQUATIONS:     4002
 	NUMBER OF RHS:           1
 	KRYLOV METHOD:           CG
 	PRECONDITIONER:          PAMG
 	CONVERGENCE TOL:         1.000e-05
 	MAXIMUM ITERATIONS:      200
 	SETUP TIME:              0.1 SEC
 	APPLY TIME:              0.0 SEC
 
    NUMBER OF MATRIX-VECTOR MULTIPLICATIONS: 65
 
 ITERATIVE SOLVER CONVERGED.
 NUM. ITERATIONS =    6 RELATIVE RESIDUAL NORM =  5.137e-06 RHS NORM =  2.004e-14
 

 ***NOTE: USER SUBROUTINE REQUESTS A TIME INCREMENT CHANGE.


  INCREMENT   354 STARTS. ATTEMPT NUMBER 24, TIME INCREMENT  1.751E-16
 
	SYMMETRIC ITERATIVE SOLVER RUNNING ON
 	1 HOST:        16 MPI RANKS x 1 THREAD
 	NUMBER OF EQUATIONS:     4002
 	NUMBER OF RHS:           1
 	KRYLOV METHOD:           CG
 	PRECONDITIONER:          PAMG
 	CONVERGENCE TOL:         1.000e-05
 	MAXIMUM ITERATIONS:      200
 	SETUP TIME:              0.1 SEC
 	APPLY TIME:              0.0 SEC
 
    NUMBER OF MATRIX-VECTOR MULTIPLICATIONS: 65
 
 ITERATIVE SOLVER CONVERGED.
 NUM. ITERATIONS =    6 RELATIVE RESIDUAL NORM =  5.127e-06 RHS NORM =  2.004e-14
 

 ***NOTE: USER SUBROUTINE REQUESTS A TIME INCREMENT CHANGE.


  INCREMENT   354 STARTS. ATTEMPT NUMBER 25, TIME INCREMENT  8.753E-17
 
	SYMMETRIC ITERATIVE SOLVER RUNNING ON
 	1 HOST:        16 MPI RANKS x 1 THREAD
 	NUMBER OF EQUATIONS:     4002
 	NUMBER OF RHS:           1
 	KRYLOV METHOD:           CG
 	PRECONDITIONER:          PAMG
 	CONVERGENCE TOL:         1.000e-05
 	MAXIMUM ITERATIONS:      200
 	SETUP TIME:              0.1 SEC
 	APPLY TIME:              0.0 SEC
 
    NUMBER OF MATRIX-VECTOR MULTIPLICATIONS: 65
 
 ITERATIVE SOLVER CONVERGED.
 NUM. ITERATIONS =    6 RELATIVE RESIDUAL NORM =  5.132e-06 RHS NORM =  2.004e-14
 

 ***NOTE: USER SUBROUTINE REQUESTS A TIME INCREMENT CHANGE.


  INCREMENT   354 STARTS. ATTEMPT NUMBER 26, TIME INCREMENT  4.377E-17
 
	SYMMETRIC ITERATIVE SOLVER RUNNING ON
 	1 HOST:        16 MPI RANKS x 1 THREAD
 	NUMBER OF EQUATIONS:     4002
 	NUMBER OF RHS:           1
 	KRYLOV METHOD:           CG
 	PRECONDITIONER:          PAMG
 	CONVERGENCE TOL:         1.000e-05
 	MAXIMUM ITERATIONS:      200
 	SETUP TIME:              0.1 SEC
 	APPLY TIME:              0.0 SEC
 
    NUMBER OF MATRIX-VECTOR MULTIPLICATIONS: 65
 
 ITERATIVE SOLVER CONVERGED.
 NUM. ITERATIONS =    6 RELATIVE RESIDUAL NORM =  5.125e-06 RHS NORM =  2.004e-14
 

 ***NOTE: USER SUBROUTINE REQUESTS A TIME INCREMENT CHANGE.


  INCREMENT   354 STARTS. ATTEMPT NUMBER 27, TIME INCREMENT  2.188E-17
 
	SYMMETRIC ITERATIVE SOLVER RUNNING ON
 	1 HOST:        16 MPI RANKS x 1 THREAD
 	NUMBER OF EQUATIONS:     4002
 	NUMBER OF RHS:           1
 	KRYLOV METHOD:           CG
 	PRECONDITIONER:          PAMG
 	CONVERGENCE TOL:         1.000e-05
 	MAXIMUM ITERATIONS:      200
 	SETUP TIME:              0.1 SEC
 	APPLY TIME:              0.0 SEC
 
    NUMBER OF MATRIX-VECTOR MULTIPLICATIONS: 65
 
 ITERATIVE SOLVER CONVERGED.
 NUM. ITERATIONS =    6 RELATIVE RESIDUAL NORM =  5.129e-06 RHS NORM =  2.004e-14
 

 ***NOTE: USER SUBROUTINE REQUESTS A TIME INCREMENT CHANGE.


  INCREMENT   354 STARTS. ATTEMPT NUMBER 28, TIME INCREMENT  1.094E-17
 
	SYMMETRIC ITERATIVE SOLVER RUNNING ON
 	1 HOST:        16 MPI RANKS x 1 THREAD
 	NUMBER OF EQUATIONS:     4002
 	NUMBER OF RHS:           1
 	KRYLOV METHOD:           CG
 	PRECONDITIONER:          PAMG
 	CONVERGENCE TOL:         1.000e-05
 	MAXIMUM ITERATIONS:      200
 	SETUP TIME:              0.1 SEC
 	APPLY TIME:              0.0 SEC
 
    NUMBER OF MATRIX-VECTOR MULTIPLICATIONS: 65
 
 ITERATIVE SOLVER CONVERGED.
 NUM. ITERATIONS =    6 RELATIVE RESIDUAL NORM =  5.132e-06 RHS NORM =  2.004e-14
 

 ***NOTE: USER SUBROUTINE REQUESTS A TIME INCREMENT CHANGE.


  INCREMENT   354 STARTS. ATTEMPT NUMBER 29, TIME INCREMENT  5.471E-18
 
	SYMMETRIC ITERATIVE SOLVER RUNNING ON
 	1 HOST:        16 MPI RANKS x 1 THREAD
 	NUMBER OF EQUATIONS:     4002
 	NUMBER OF RHS:           1
 	KRYLOV METHOD:           CG
 	PRECONDITIONER:          PAMG
 	CONVERGENCE TOL:         1.000e-05
 	MAXIMUM ITERATIONS:      200
 	SETUP TIME:              0.1 SEC
 	APPLY TIME:              0.0 SEC
 
    NUMBER OF MATRIX-VECTOR MULTIPLICATIONS: 65
 
 ITERATIVE SOLVER CONVERGED.
 NUM. ITERATIONS =    6 RELATIVE RESIDUAL NORM =  5.133e-06 RHS NORM =  2.004e-14
 

 ***NOTE: USER SUBROUTINE REQUESTS A TIME INCREMENT CHANGE.


  INCREMENT   354 STARTS. ATTEMPT NUMBER 30, TIME INCREMENT  2.735E-18
 
	SYMMETRIC ITERATIVE SOLVER RUNNING ON
 	1 HOST:        16 MPI RANKS x 1 THREAD
 	NUMBER OF EQUATIONS:     4002
 	NUMBER OF RHS:           1
 	KRYLOV METHOD:           CG
 	PRECONDITIONER:          PAMG
 	CONVERGENCE TOL:         1.000e-05
 	MAXIMUM ITERATIONS:      200
 	SETUP TIME:              0.1 SEC
 	APPLY TIME:              0.0 SEC
 
    NUMBER OF MATRIX-VECTOR MULTIPLICATIONS: 65
 
 ITERATIVE SOLVER CONVERGED.
 NUM. ITERATIONS =    6 RELATIVE RESIDUAL NORM =  5.131e-06 RHS NORM =  2.004e-14
 

 ***NOTE: USER SUBROUTINE REQUESTS A TIME INCREMENT CHANGE.


  INCREMENT   354 STARTS. ATTEMPT NUMBER 31, TIME INCREMENT  1.368E-18
 
	SYMMETRIC ITERATIVE SOLVER RUNNING ON
 	1 HOST:        16 MPI RANKS x 1 THREAD
 	NUMBER OF EQUATIONS:     4002
 	NUMBER OF RHS:           1
 	KRYLOV METHOD:           CG
 	PRECONDITIONER:          PAMG
 	CONVERGENCE TOL:         1.000e-05
 	MAXIMUM ITERATIONS:      200
 	SETUP TIME:              0.1 SEC
 	APPLY TIME:              0.0 SEC
 
    NUMBER OF MATRIX-VECTOR MULTIPLICATIONS: 65
 
 ITERATIVE SOLVER CONVERGED.
 NUM. ITERATIONS =    6 RELATIVE RESIDUAL NORM =  5.129e-06 RHS NORM =  2.004e-14
 

 ***NOTE: USER SUBROUTINE REQUESTS A TIME INCREMENT CHANGE.


  INCREMENT   354 STARTS. ATTEMPT NUMBER 32, TIME INCREMENT  6.839E-19
 
	SYMMETRIC ITERATIVE SOLVER RUNNING ON
 	1 HOST:        16 MPI RANKS x 1 THREAD
 	NUMBER OF EQUATIONS:     4002
 	NUMBER OF RHS:           1
 	KRYLOV METHOD:           CG
 	PRECONDITIONER:          PAMG
 	CONVERGENCE TOL:         1.000e-05
 	MAXIMUM ITERATIONS:      200
 	SETUP TIME:              0.1 SEC
 	APPLY TIME:              0.0 SEC
 
    NUMBER OF MATRIX-VECTOR MULTIPLICATIONS: 65
 
 ITERATIVE SOLVER CONVERGED.
 NUM. ITERATIONS =    6 RELATIVE RESIDUAL NORM =  5.128e-06 RHS NORM =  2.004e-14
 

 ***NOTE: USER SUBROUTINE REQUESTS A TIME INCREMENT CHANGE.


  INCREMENT   354 STARTS. ATTEMPT NUMBER 33, TIME INCREMENT  3.419E-19
 
	SYMMETRIC ITERATIVE SOLVER RUNNING ON
 	1 HOST:        16 MPI RANKS x 1 THREAD
 	NUMBER OF EQUATIONS:     4002
 	NUMBER OF RHS:           1
 	KRYLOV METHOD:           CG
 	PRECONDITIONER:          PAMG
 	CONVERGENCE TOL:         1.000e-05
 	MAXIMUM ITERATIONS:      200
 	SETUP TIME:              0.1 SEC
 	APPLY TIME:              0.0 SEC
 
    NUMBER OF MATRIX-VECTOR MULTIPLICATIONS: 65
 
 ITERATIVE SOLVER CONVERGED.
 NUM. ITERATIONS =    6 RELATIVE RESIDUAL NORM =  5.127e-06 RHS NORM =  2.004e-14
 

 ***NOTE: USER SUBROUTINE REQUESTS A TIME INCREMENT CHANGE.


  INCREMENT   354 STARTS. ATTEMPT NUMBER 34, TIME INCREMENT  1.710E-19
 
	SYMMETRIC ITERATIVE SOLVER RUNNING ON
 	1 HOST:        16 MPI RANKS x 1 THREAD
 	NUMBER OF EQUATIONS:     4002
 	NUMBER OF RHS:           1
 	KRYLOV METHOD:           CG
 	PRECONDITIONER:          PAMG
 	CONVERGENCE TOL:         1.000e-05
 	MAXIMUM ITERATIONS:      200
 	SETUP TIME:              0.1 SEC
 	APPLY TIME:              0.0 SEC
 
    NUMBER OF MATRIX-VECTOR MULTIPLICATIONS: 65
 
 ITERATIVE SOLVER CONVERGED.
 NUM. ITERATIONS =    6 RELATIVE RESIDUAL NORM =  5.127e-06 RHS NORM =  2.004e-14
 

 ***NOTE: USER SUBROUTINE REQUESTS A TIME INCREMENT CHANGE.


  INCREMENT   354 STARTS. ATTEMPT NUMBER 35, TIME INCREMENT  8.548E-20
 
	SYMMETRIC ITERATIVE SOLVER RUNNING ON
 	1 HOST:        16 MPI RANKS x 1 THREAD
 	NUMBER OF EQUATIONS:     4002
 	NUMBER OF RHS:           1
 	KRYLOV METHOD:           CG
 	PRECONDITIONER:          PAMG
 	CONVERGENCE TOL:         1.000e-05
 	MAXIMUM ITERATIONS:      200
 	SETUP TIME:              0.1 SEC
 	APPLY TIME:              0.0 SEC
 
    NUMBER OF MATRIX-VECTOR MULTIPLICATIONS: 65
 
 ITERATIVE SOLVER CONVERGED.
 NUM. ITERATIONS =    6 RELATIVE RESIDUAL NORM =  5.127e-06 RHS NORM =  2.004e-14
 

 ***NOTE: USER SUBROUTINE REQUESTS A TIME INCREMENT CHANGE.


  INCREMENT   354 STARTS. ATTEMPT NUMBER 36, TIME INCREMENT  4.274E-20
 
	SYMMETRIC ITERATIVE SOLVER RUNNING ON
 	1 HOST:        16 MPI RANKS x 1 THREAD
 	NUMBER OF EQUATIONS:     4002
 	NUMBER OF RHS:           1
 	KRYLOV METHOD:           CG
 	PRECONDITIONER:          PAMG
 	CONVERGENCE TOL:         1.000e-05
 	MAXIMUM ITERATIONS:      200
 	SETUP TIME:              0.1 SEC
 	APPLY TIME:              0.0 SEC
 
    NUMBER OF MATRIX-VECTOR MULTIPLICATIONS: 65
 
 ITERATIVE SOLVER CONVERGED.
 NUM. ITERATIONS =    6 RELATIVE RESIDUAL NORM =  5.127e-06 RHS NORM =  2.004e-14
 

 ***NOTE: USER SUBROUTINE REQUESTS A TIME INCREMENT CHANGE.


  INCREMENT   354 STARTS. ATTEMPT NUMBER 37, TIME INCREMENT  2.137E-20
 
	SYMMETRIC ITERATIVE SOLVER RUNNING ON
 	1 HOST:        16 MPI RANKS x 1 THREAD
 	NUMBER OF EQUATIONS:     4002
 	NUMBER OF RHS:           1
 	KRYLOV METHOD:           CG
 	PRECONDITIONER:          PAMG
 	CONVERGENCE TOL:         1.000e-05
 	MAXIMUM ITERATIONS:      200
 	SETUP TIME:              0.1 SEC
 	APPLY TIME:              0.0 SEC
 
    NUMBER OF MATRIX-VECTOR MULTIPLICATIONS: 65
 
 ITERATIVE SOLVER CONVERGED.
 NUM. ITERATIONS =    6 RELATIVE RESIDUAL NORM =  5.127e-06 RHS NORM =  2.004e-14
 

 ***NOTE: USER SUBROUTINE REQUESTS A TIME INCREMENT CHANGE.


  INCREMENT   354 STARTS. ATTEMPT NUMBER 38, TIME INCREMENT  1.069E-20
 
	SYMMETRIC ITERATIVE SOLVER RUNNING ON
 	1 HOST:        16 MPI RANKS x 1 THREAD
 	NUMBER OF EQUATIONS:     4002
 	NUMBER OF RHS:           1
 	KRYLOV METHOD:           CG
 	PRECONDITIONER:          PAMG
 	CONVERGENCE TOL:         1.000e-05
 	MAXIMUM ITERATIONS:      200
 	SETUP TIME:              0.1 SEC
 	APPLY TIME:              0.0 SEC
 
    NUMBER OF MATRIX-VECTOR MULTIPLICATIONS: 65
 
 ITERATIVE SOLVER CONVERGED.
 NUM. ITERATIONS =    6 RELATIVE RESIDUAL NORM =  5.127e-06 RHS NORM =  2.004e-14
 

 ***NOTE: USER SUBROUTINE REQUESTS A TIME INCREMENT CHANGE.


  INCREMENT   354 STARTS. ATTEMPT NUMBER 39, TIME INCREMENT  5.343E-21
 
	SYMMETRIC ITERATIVE SOLVER RUNNING ON
 	1 HOST:        16 MPI RANKS x 1 THREAD
 	NUMBER OF EQUATIONS:     4002
 	NUMBER OF RHS:           1
 	KRYLOV METHOD:           CG
 	PRECONDITIONER:          PAMG
 	CONVERGENCE TOL:         1.000e-05
 	MAXIMUM ITERATIONS:      200
 	SETUP TIME:              0.1 SEC
 	APPLY TIME:              0.0 SEC
 
    NUMBER OF MATRIX-VECTOR MULTIPLICATIONS: 65
 
 ITERATIVE SOLVER CONVERGED.
 NUM. ITERATIONS =    6 RELATIVE RESIDUAL NORM =  5.127e-06 RHS NORM =  2.004e-14
 

 ***NOTE: USER SUBROUTINE REQUESTS A TIME INCREMENT CHANGE.


  INCREMENT   354 STARTS. ATTEMPT NUMBER 40, TIME INCREMENT  2.671E-21
 
	SYMMETRIC ITERATIVE SOLVER RUNNING ON
 	1 HOST:        16 MPI RANKS x 1 THREAD
 	NUMBER OF EQUATIONS:     4002
 	NUMBER OF RHS:           1
 	KRYLOV METHOD:           CG
 	PRECONDITIONER:          PAMG
 	CONVERGENCE TOL:         1.000e-05
 	MAXIMUM ITERATIONS:      200
 	SETUP TIME:              0.1 SEC
 	APPLY TIME:              0.0 SEC
 
    NUMBER OF MATRIX-VECTOR MULTIPLICATIONS: 65
 
 ITERATIVE SOLVER CONVERGED.
 NUM. ITERATIONS =    6 RELATIVE RESIDUAL NORM =  5.127e-06 RHS NORM =  2.004e-14
 

 ***NOTE: USER SUBROUTINE REQUESTS A TIME INCREMENT CHANGE.


  INCREMENT   354 STARTS. ATTEMPT NUMBER 41, TIME INCREMENT  1.336E-21
 
	SYMMETRIC ITERATIVE SOLVER RUNNING ON
 	1 HOST:        16 MPI RANKS x 1 THREAD
 	NUMBER OF EQUATIONS:     4002
 	NUMBER OF RHS:           1
 	KRYLOV METHOD:           CG
 	PRECONDITIONER:          PAMG
 	CONVERGENCE TOL:         1.000e-05
 	MAXIMUM ITERATIONS:      200
 	SETUP TIME:              0.1 SEC
 	APPLY TIME:              0.0 SEC
 
    NUMBER OF MATRIX-VECTOR MULTIPLICATIONS: 65
 
 ITERATIVE SOLVER CONVERGED.
 NUM. ITERATIONS =    6 RELATIVE RESIDUAL NORM =  5.127e-06 RHS NORM =  2.004e-14
 

 ***NOTE: USER SUBROUTINE REQUESTS A TIME INCREMENT CHANGE.


  INCREMENT   354 STARTS. ATTEMPT NUMBER 42, TIME INCREMENT  6.678E-22
 
	SYMMETRIC ITERATIVE SOLVER RUNNING ON
 	1 HOST:        16 MPI RANKS x 1 THREAD
 	NUMBER OF EQUATIONS:     4002
 	NUMBER OF RHS:           1
 	KRYLOV METHOD:           CG
 	PRECONDITIONER:          PAMG
 	CONVERGENCE TOL:         1.000e-05
 	MAXIMUM ITERATIONS:      200
 	SETUP TIME:              0.1 SEC
 	APPLY TIME:              0.0 SEC
 
    NUMBER OF MATRIX-VECTOR MULTIPLICATIONS: 65
 
 ITERATIVE SOLVER CONVERGED.
 NUM. ITERATIONS =    6 RELATIVE RESIDUAL NORM =  5.127e-06 RHS NORM =  2.004e-14
 

 ***NOTE: USER SUBROUTINE REQUESTS A TIME INCREMENT CHANGE.


  INCREMENT   354 STARTS. ATTEMPT NUMBER 43, TIME INCREMENT  3.339E-22
 
	SYMMETRIC ITERATIVE SOLVER RUNNING ON
 	1 HOST:        16 MPI RANKS x 1 THREAD
 	NUMBER OF EQUATIONS:     4002
 	NUMBER OF RHS:           1
 	KRYLOV METHOD:           CG
 	PRECONDITIONER:          PAMG
 	CONVERGENCE TOL:         1.000e-05
 	MAXIMUM ITERATIONS:      200
 	SETUP TIME:              0.1 SEC
 	APPLY TIME:              0.0 SEC
 
    NUMBER OF MATRIX-VECTOR MULTIPLICATIONS: 65
 
 ITERATIVE SOLVER CONVERGED.
 NUM. ITERATIONS =    6 RELATIVE RESIDUAL NORM =  5.127e-06 RHS NORM =  2.004e-14
 

 ***NOTE: USER SUBROUTINE REQUESTS A TIME INCREMENT CHANGE.


  INCREMENT   354 STARTS. ATTEMPT NUMBER 44, TIME INCREMENT  1.670E-22
 
	SYMMETRIC ITERATIVE SOLVER RUNNING ON
 	1 HOST:        16 MPI RANKS x 1 THREAD
 	NUMBER OF EQUATIONS:     4002
 	NUMBER OF RHS:           1
 	KRYLOV METHOD:           CG
 	PRECONDITIONER:          PAMG
 	CONVERGENCE TOL:         1.000e-05
 	MAXIMUM ITERATIONS:      200
 	SETUP TIME:              0.1 SEC
 	APPLY TIME:              0.0 SEC
 
    NUMBER OF MATRIX-VECTOR MULTIPLICATIONS: 65
 
 ITERATIVE SOLVER CONVERGED.
 NUM. ITERATIONS =    6 RELATIVE RESIDUAL NORM =  5.127e-06 RHS NORM =  2.004e-14
 

 ***NOTE: USER SUBROUTINE REQUESTS A TIME INCREMENT CHANGE.


  INCREMENT   354 STARTS. ATTEMPT NUMBER 45, TIME INCREMENT  8.348E-23
 
	SYMMETRIC ITERATIVE SOLVER RUNNING ON
 	1 HOST:        16 MPI RANKS x 1 THREAD
 	NUMBER OF EQUATIONS:     4002
 	NUMBER OF RHS:           1
 	KRYLOV METHOD:           CG
 	PRECONDITIONER:          PAMG
 	CONVERGENCE TOL:         1.000e-05
 	MAXIMUM ITERATIONS:      200
 	SETUP TIME:              0.1 SEC
 	APPLY TIME:              0.0 SEC
 
    NUMBER OF MATRIX-VECTOR MULTIPLICATIONS: 65
 
 ITERATIVE SOLVER CONVERGED.
 NUM. ITERATIONS =    6 RELATIVE RESIDUAL NORM =  5.127e-06 RHS NORM =  2.004e-14
 

 ***NOTE: USER SUBROUTINE REQUESTS A TIME INCREMENT CHANGE.
 

 ***ERROR: TOO MANY ATTEMPTS MADE FOR THIS INCREMENT
 

 ***ERROR: TOO MANY ATTEMPTS MADE FOR THIS INCREMENT
 

 ***ERROR: TOO MANY ATTEMPTS MADE FOR THIS INCREMENT
 

 ***ERROR: TOO MANY ATTEMPTS MADE FOR THIS INCREMENT
 

 ***ERROR: TOO MANY ATTEMPTS MADE FOR THIS INCREMENT
 

 ***ERROR: TOO MANY ATTEMPTS MADE FOR THIS INCREMENT
 

 ***ERROR: TOO MANY ATTEMPTS MADE FOR THIS INCREMENT
 

 ***ERROR: TOO MANY ATTEMPTS MADE FOR THIS INCREMENT
 

 ***ERROR: TOO MANY ATTEMPTS MADE FOR THIS INCREMENT
 

 ***ERROR: TOO MANY ATTEMPTS MADE FOR THIS INCREMENT
 

 ***ERROR: TOO MANY ATTEMPTS MADE FOR THIS INCREMENT
 

 ***ERROR: TOO MANY ATTEMPTS MADE FOR THIS INCREMENT
 

 ***ERROR: TOO MANY ATTEMPTS MADE FOR THIS INCREMENT
 

 ***ERROR: TOO MANY ATTEMPTS MADE FOR THIS INCREMENT
 

 ***ERROR: TOO MANY ATTEMPTS MADE FOR THIS INCREMENT
 

 ***ERROR: TOO MANY ATTEMPTS MADE FOR THIS INCREMENT

 ***ERROR: THE ANALYSIS HAS BEEN TERMINATED DUE TO PREVIOUS ERRORS. ALL OUTPUT 
           REQUESTS HAVE BEEN WRITTEN FOR THE LAST CONVERGED INCREMENT.



     ANALYSIS SUMMARY:
     TOTAL OF        354  INCREMENTS
                     252  CUTBACKS IN AUTOMATIC INCREMENTATION
                    1011  ITERATIONS INCLUDING CONTACT ITERATIONS IF PRESENT
                    1011  PASSES THROUGH THE EQUATION SOLVER OF WHICH 
                    1011  INVOLVE MATRIX DECOMPOSITION, INCLUDING
                       0  DECOMPOSITION(S) OF THE MASS MATRIX
                       1  REORDERING OF EQUATIONS TO MINIMIZE WAVEFRONT
                       0  ADDITIONAL RESIDUAL EVALUATIONS FOR LINE SEARCHES
                       0  ADDITIONAL OPERATOR EVALUATIONS FOR LINE SEARCHES
                       1  WARNING MESSAGES DURING USER INPUT PROCESSING
                       0  WARNING MESSAGES DURING ANALYSIS
                       0  ANALYSIS WARNINGS ARE NUMERICAL PROBLEM MESSAGES
                       0  ANALYSIS WARNINGS ARE NEGATIVE EIGENVALUE MESSAGES
                      17  ERROR MESSAGES



     JOB TIME SUMMARY
       USER TIME (SEC)      =     4.42E+02
       SYSTEM TIME (SEC)    =      27.    
       TOTAL CPU TIME (SEC) =     4.69E+02
       WALLCLOCK TIME (SEC) =          480
       MEMORY PEAK (GB)     =            0
