 Abaqus/Standard 2022.HF6                  DATE 13-Sep-2023 TIME 16:04:18
 SUMMARY OF JOB INFORMATION:
 STEP  INC ATT SEVERE EQUIL TOTAL  TOTAL      STEP       INC OF       DOF    IF
               DISCON ITERS ITERS  TIME/    TIME/LPF    TIME/LPF    MONITOR RIKS
               ITERS               FREQ
   1     1   1     0     2     2  0.100      0.100      0.1000    
   1     2   1     0     2     2  0.200      0.200      0.1000    
   1     3   1     0     1     1  0.300      0.300      0.1000    
   1     4   1     0     2     2  0.400      0.400      0.1000    
   1     5   1     0     2     2  0.500      0.500      0.1000    
   1     6   1     0     2     2  0.600      0.600      0.1000    
   1     7   1     0     1     1  0.700      0.700      0.1000    
   1     8   1     0     2     2  0.800      0.800      0.1000    
   1     9   1     0     2     2  0.900      0.900      0.1000    
   1    10   1     0     1     1  1.00       1.00       0.1000    
   1    11   1     0     1     1  1.10       1.10       0.1000    
   1    12   1     0     2     2  1.20       1.20       0.1000    
   1    13   1U    0     1     1  1.20       1.20       0.1000    
   1    13   2     0     2     2  1.25       1.25       0.05000   
   1    14   1     0     2     2  1.30       1.30       0.05000   
   1    15   1     0     3     3  1.40       1.40       0.1000    
   1    16   1U    0     1     1  1.40       1.40       0.1000    
   1    16   2     0     3     3  1.45       1.45       0.05000   
   1    17   1     0     2     2  1.50       1.50       0.05000   
   1    18   1     0     2     2  1.58       1.58       0.07500   
   1    19   1     0     1     1  1.60       1.60       0.02500   
   1    20   1U    0     1     1  1.60       1.60       0.1000    
   1    20   2     0     2     2  1.65       1.65       0.05000   
   1    21   1     0     2     2  1.70       1.70       0.05000   
   1    22   1     0     2     2  1.78       1.78       0.07500   
   1    23   1     0     1     1  1.80       1.80       0.02500   
   1    24   1     0     3     3  1.90       1.90       0.1000    
   1    25   1     0     2     2  2.00       2.00       0.1000    
   1    26   1     0     2     2  2.10       2.10       0.1000    
   1    27   1     0     2     2  2.20       2.20       0.1000    
   1    28   1     0     2     2  2.30       2.30       0.1000    
   1    29   1     0     3     3  2.40       2.40       0.1000    
   1    30   1     0     2     2  2.50       2.50       0.1000    
   1    31   1     0     2     2  2.60       2.60       0.1000    
   1    32   1     0     2     2  2.70       2.70       0.1000    
   1    33   1     0     2     2  2.80       2.80       0.1000    
   1    34   1     0     2     2  2.90       2.90       0.1000    
   1    35   1     0     2     2  3.00       3.00       0.1000    
   1    36   1     0     2     2  3.10       3.10       0.1000    
   1    37   1     0     2     2  3.20       3.20       0.1000    
   1    38   1     0     2     2  3.30       3.30       0.1000    
   1    39   1     0     2     2  3.40       3.40       0.1000    
   1    40   1     0     2     2  3.50       3.50       0.1000    
   1    41   1     0     2     2  3.60       3.60       0.1000    
   1    42   1     0     2     2  3.70       3.70       0.1000    
   1    43   1     0     2     2  3.80       3.80       0.1000    
   1    44   1     0     2     2  3.90       3.90       0.1000    
   1    45   1     0     2     2  4.00       4.00       0.1000    
   1    46   1     0     2     2  4.10       4.10       0.1000    
   1    47   1     0     2     2  4.20       4.20       0.1000    
   1    48   1     0     3     3  4.30       4.30       0.1000    
   1    49   1     0     2     2  4.40       4.40       0.1000    
   1    50   1     0     2     2  4.50       4.50       0.1000    
   1    51   1     0     2     2  4.60       4.60       0.1000    
   1    52   1     0     2     2  4.70       4.70       0.1000    
   1    53   1     0     2     2  4.80       4.80       0.1000    
   1    54   1     0     1     1  4.90       4.90       0.1000    
   1    55   1     0     3     3  5.00       5.00       0.1000    
   1    56   1U    0     1     1  5.00       5.00       0.1688    
   1    56   2U    0     1     1  5.00       5.00       0.08438   
   1    56   3U    0     2     2  5.00       5.00       0.04219   
   1    56   4     0     3     3  5.02       5.02       0.02109   
   1    57   1     0     2     2  5.05       5.05       0.03164   
   1    58   1     0     2     2  5.10       5.10       0.04746   
   1    59   1     0     1     1  5.17       5.17       0.07119   
   1    60   1     0     2     2  5.28       5.28       0.1068    
   1    61   1     0     2     2  5.44       5.44       0.1602    
   1    62   1     0     2     2  5.68       5.68       0.2403    
   1    63   1U    0     1     1  5.68       5.68       0.3604    
   1    63   2     0     2     2  5.86       5.86       0.1802    
   1    64   1     0     3     3  6.13       6.13       0.2703    
   1    65   1     0     4     4  6.53       6.53       0.4055    
   1    66   1     0     4     4  7.14       7.14       0.6082    
   1    67   1     0     4     4  8.06       8.06       0.9123    
   1    68   1U    0     1     1  8.06       8.06       1.368     
   1    68   2U    0     1     1  8.06       8.06       0.6842    
   1    68   3     0     3     3  8.40       8.40       0.3421    
   1    69   1U    0     1     1  8.40       8.40       0.5132    
   1    69   2     0     2     2  8.65       8.65       0.2566    
   1    70   1U    0     1     1  8.65       8.65       0.3849    
   1    70   2U    0     1     1  8.65       8.65       0.1924    
   1    70   3     0     2     2  8.75       8.75       0.09622   
   1    71   1U    0     1     1  8.75       8.75       0.1443    
   1    71   2     0     1     1  8.82       8.82       0.07216   
   1    72   1U    0     1     1  8.82       8.82       0.1082    
   1    72   2     0     1     1  8.88       8.88       0.05412   
   1    73   1U    0     1     1  8.88       8.88       0.08118   
   1    73   2     0     1     1  8.92       8.92       0.04059   
   1    74   1U    0     1     1  8.92       8.92       0.06089   
   1    74   2     0     2     2  8.95       8.95       0.03044   
   1    75   1     0     2     2  8.99       8.99       0.04567   
   1    76   1U    0     1     1  8.99       8.99       0.06850   
   1    76   2     0     2     2  9.03       9.03       0.03425   
   1    77   1     0     2     2  9.08       9.08       0.05137   
   1    78   1U    0     1     1  9.08       9.08       0.07706   
   1    78   2     0     2     2  9.12       9.12       0.03853   
   1    79   1U    0     1     1  9.12       9.12       0.05780   
   1    79   2     0     2     2  9.15       9.15       0.02890   
   1    80   1     0     2     2  9.19       9.19       0.04335   
   1    81   1     0     2     2  9.25       9.25       0.06502   
   1    82   1U    0     1     1  9.25       9.25       0.09753   
   1    82   2     0     2     2  9.30       9.30       0.04876   
   1    83   1U    0     1     1  9.30       9.30       0.07315   
   1    83   2     0     2     2  9.34       9.34       0.03657   
   1    84   1     0     2     2  9.39       9.39       0.05486   
   1    85   1U    0     1     1  9.39       9.39       0.08229   
   1    85   2     0     2     2  9.44       9.44       0.04115   
   1    86   1     0     2     2  9.50       9.50       0.06172   
   1    87   1U    0     1     1  9.50       9.50       0.09258   
   1    87   2     0     2     2  9.54       9.54       0.04629   
   1    88   1     0     2     2  9.61       9.61       0.06943   
   1    89   1U    0     1     1  9.61       9.61       0.1041    
   1    89   2     0     2     2  9.67       9.67       0.05207   
   1    90   1     0     2     2  9.74       9.74       0.07811   
   1    91   1U    0     1     1  9.74       9.74       0.1172    
   1    91   2     0     2     2  9.80       9.80       0.05858   
   1    92   1U    0     2     2  9.80       9.80       0.08788   
   1    92   2     0     2     2  9.85       9.85       0.04394   
   1    93   1     0     2     2  9.91       9.91       0.06591   
   1    94   1U    0     1     1  9.91       9.91       0.09886   
   1    94   2     0     2     2  9.96       9.96       0.04943   
   1    95   1     0     2     2  10.0       10.0       0.07415   
   1    96   1U    0     1     1  10.0       10.0       0.1112    
   1    96   2     0     1     1  10.1       10.1       0.05561   
   1    97   1     0     2     2  10.2       10.2       0.08341   
   1    98   1     0     2     2  10.3       10.3       0.1251    
   1    99   1U    0     1     1  10.3       10.3       0.1877    
   1    99   2     0     2     2  10.4       10.4       0.09384   
   1   100   1     0     2     2  10.5       10.5       0.1408    
   1   101   1U    0     1     1  10.5       10.5       0.2111    
   1   101   2     0     2     2  10.6       10.6       0.1056    
   1   102   1     0     2     2  10.8       10.8       0.1584    
   1   103   1U    0     1     1  10.8       10.8       0.2375    
   1   103   2     0     2     2  10.9       10.9       0.1188    
   1   104   1     0     3     3  11.1       11.1       0.1781    
   1   105   1     0     3     3  11.4       11.4       0.2672    
   1   106   1U    0     1     1  11.4       11.4       0.4008    
   1   106   2     0     3     3  11.6       11.6       0.2004    
   1   107   1     0     3     3  11.9       11.9       0.3006    
   1   108   1     0     4     4  12.3       12.3       0.4509    
   1   109   1     0     3     3  13.0       13.0       0.6764    
   1   110   1U    0     1     1  13.0       13.0       1.015     
   1   110   2     0     2     2  13.5       13.5       0.5073    
   1   111   1U    0     1     1  13.5       13.5       0.7610    
   1   111   2U    0     1     1  13.5       13.5       0.3805    
   1   111   3     0     2     2  13.7       13.7       0.1902    
   1   112   1U    0     1     1  13.7       13.7       0.2854    
   1   112   2U    0     1     1  13.7       13.7       0.1427    
   1   112   3     0     2     2  13.8       13.8       0.07134   
   1   113   1U    0     1     1  13.8       13.8       0.1070    
   1   113   2     0     1     1  13.8       13.8       0.05351   
   1   114   1     0     1     1  13.9       13.9       0.08026   
   1   115   1U    0     1     1  13.9       13.9       0.1204    
   1   115   2     0     2     2  14.0       14.0       0.06019   
   1   116   1U    0     1     1  14.0       14.0       0.09029   
   1   116   2     0     2     2  14.0       14.0       0.04514   
   1   117   1U    0     1     1  14.0       14.0       0.06772   
   1   117   2     0     2     2  14.0       14.0       0.03386   
   1   118   1     0     2     2  14.1       14.1       0.05079   
   1   119   1U    0     1     1  14.1       14.1       0.07618   
   1   119   2     0     2     2  14.1       14.1       0.03809   
   1   120   1     0     2     2  14.2       14.2       0.05714   
   1   121   1U    0     1     1  14.2       14.2       0.08570   
   1   121   2     0     2     2  14.2       14.2       0.04285   
   1   122   1     0     2     2  14.3       14.3       0.06428   
   1   123   1U    0     1     1  14.3       14.3       0.09642   
   1   123   2     0     2     2  14.3       14.3       0.04821   
   1   124   1U    0     1     1  14.3       14.3       0.07231   
   1   124   2     0     2     2  14.4       14.4       0.03616   
   1   125   1     0     2     2  14.4       14.4       0.05424   
   1   126   1U    0     1     1  14.4       14.4       0.08135   
   1   126   2     0     2     2  14.5       14.5       0.04068   
   1   127   1     0     2     2  14.5       14.5       0.06101   
   1   128   1U    0     1     1  14.5       14.5       0.09152   
   1   128   2     0     2     2  14.6       14.6       0.04576   
   1   129   1     0     2     2  14.6       14.6       0.06864   
   1   130   1U    0     1     1  14.6       14.6       0.1030    
   1   130   2     0     2     2  14.7       14.7       0.05148   
   1   131   1     0     2     2  14.8       14.8       0.07722   
   1   132   1U    0     1     1  14.8       14.8       0.1158    
   1   132   2     0     2     2  14.8       14.8       0.05792   
   1   133   1     0     2     2  14.9       14.9       0.08687   
   1   134   1U    0     1     1  14.9       14.9       0.1303    
   1   134   2     0     2     2  15.0       15.0       0.06516   
   1   135   1     0     2     2  15.1       15.1       0.09773   
   1   136   1U    0     1     1  15.1       15.1       0.1466    
   1   136   2     0     2     2  15.1       15.1       0.07330   
   1   137   1     0     2     2  15.3       15.3       0.1100    
   1   138   1U    0     1     1  15.3       15.3       0.1649    
   1   138   2     0     2     2  15.3       15.3       0.08246   
   1   139   1     0     2     2  15.5       15.5       0.1237    
   1   140   1     0     2     2  15.7       15.7       0.1855    
   1   141   1U    0     1     1  15.7       15.7       0.2783    
   1   141   2     0     2     2  15.8       15.8       0.1392    
   1   142   1     0     3     3  16.0       16.0       0.2087    
   1   143   1     0     4     4  16.3       16.3       0.3131    
   1   144   1U    0     1     1  16.3       16.3       0.4697    
   1   144   2     0     3     3  16.5       16.5       0.2348    
   1   145   1     0     4     4  16.9       16.9       0.3522    
   1   146   1     0     4     4  17.4       17.4       0.5284    
   1   147   1     0     4     4  18.2       18.2       0.7925    
   1   148   1U    0     1     1  18.2       18.2       1.189     
   1   148   2U    0     1     1  18.2       18.2       0.5944    
   1   148   3     0     2     2  18.5       18.5       0.2972    
   1   149   1U    0     1     1  18.5       18.5       0.4458    
   1   149   2     0     2     2  18.7       18.7       0.2229    
   1   150   1U    0     1     1  18.7       18.7       0.3344    
   1   150   2U    0     1     1  18.7       18.7       0.1672    
   1   150   3     0     1     1  18.8       18.8       0.08359   
   1   151   1U    0     1     1  18.8       18.8       0.1254    
   1   151   2     0     1     1  18.9       18.9       0.06269   
   1   152   1U    0     1     1  18.9       18.9       0.09404   
   1   152   2     0     1     1  18.9       18.9       0.04702   
   1   153   1     0     1     1  19.0       19.0       0.07053   
   1   154   1U    0     1     1  19.0       19.0       0.1058    
   1   154   2     0     2     2  19.1       19.1       0.05290   
   1   155   1U    0     1     1  19.1       19.1       0.07934   
   1   155   2     0     2     2  19.1       19.1       0.03967   
   1   156   1U    0     2     2  19.1       19.1       0.05951   
   1   156   2     0     2     2  19.1       19.1       0.02975   
   1   157   1     0     2     2  19.2       19.2       0.04463   
   1   158   1U    0     1     1  19.2       19.2       0.06695   
   1   158   2     0     2     2  19.2       19.2       0.03347   
   1   159   1     0     2     2  19.3       19.3       0.05021   
   1   160   1U    0     1     1  19.3       19.3       0.07531   
   1   160   2     0     2     2  19.3       19.3       0.03766   
   1   161   1     0     2     2  19.3       19.3       0.05649   
   1   162   1U    0     1     1  19.3       19.3       0.08473   
   1   162   2     0     2     2  19.4       19.4       0.04236   
   1   163   1     0     2     2  19.5       19.5       0.06355   
   1   164   1U    0     1     1  19.5       19.5       0.09532   
   1   164   2     0     2     2  19.5       19.5       0.04766   
   1   165   1     0     2     2  19.6       19.6       0.07149   
   1   166   1U    0     1     1  19.6       19.6       0.1072    
   1   166   2     0     2     2  19.6       19.6       0.05362   
   1   167   1     0     2     2  19.7       19.7       0.08043   
   1   168   1U    0     1     1  19.7       19.7       0.1206    
   1   168   2     0     2     2  19.8       19.8       0.06032   
   1   169   1     0     2     2  19.9       19.9       0.09048   
   1   170   1U    0     1     1  19.9       19.9       0.1357    
   1   170   2     0     2     2  19.9       19.9       0.06786   
   1   171   1     0     2     2  20.0       20.0       0.1018    
   1   172   1U    0     1     1  20.0       20.0       0.1527    
   1   172   2     0     2     2  20.1       20.1       0.07634   
   1   173   1     0     2     2  20.2       20.2       0.1145    
   1   174   1U    0     2     2  20.2       20.2       0.1718    
   1   174   2     0     2     2  20.3       20.3       0.08588   
   1   175   1U    0     1     1  20.3       20.3       0.1288    
   1   175   2     0     2     2  20.4       20.4       0.06441   
   1   176   1     0     2     2  20.5       20.5       0.09662   
   1   177   1     0     2     2  20.6       20.6       0.1449    
   1   178   1U    0     1     1  20.6       20.6       0.2174    
   1   178   2     0     2     2  20.7       20.7       0.1087    
   1   179   1     0     2     2  20.9       20.9       0.1630    
   1   180   1     0     3     3  21.1       21.1       0.2446    
   1   181   1U    0     3     3  21.1       21.1       0.3669    
   1   181   2     0     3     3  21.3       21.3       0.1834    
   1   182   1     0     3     3  21.6       21.6       0.2751    
   1   183   1     0     4     4  22.0       22.0       0.4127    
   1   184   1     0     4     4  22.6       22.6       0.6191    
   1   185   1U    0     1     1  22.6       22.6       0.9286    
   1   185   2     0     3     3  23.1       23.1       0.4643    
   1   186   1U    0     1     1  23.1       23.1       0.6964    
   1   186   2     0     2     2  23.4       23.4       0.3482    
   1   187   1U    0     1     1  23.4       23.4       0.5223    
   1   187   2     0     2     2  23.7       23.7       0.2612    
   1   188   1U    0     1     1  23.7       23.7       0.3918    
   1   188   2U    0     1     1  23.7       23.7       0.1959    
   1   188   3     0     2     2  23.8       23.8       0.09794   
   1   189   1     0     2     2  23.9       23.9       0.1469    
   1   190   1U    0     1     1  23.9       23.9       0.2204    
   1   190   2U    0     1     1  23.9       23.9       0.1102    
   1   190   3     0     1     1  24.0       24.0       0.05509   
   1   191   1     0     2     2  24.1       24.1       0.08264   
   1   192   1U    0     1     1  24.1       24.1       0.1240    
   1   192   2     0     2     2  24.1       24.1       0.06198   
   1   193   1U    0     1     1  24.1       24.1       0.09296   
   1   193   2     0     2     2  24.2       24.2       0.04648   
   1   194   1U    0     1     1  24.2       24.2       0.06972   
   1   194   2     0     2     2  24.2       24.2       0.03486   
   1   195   1     0     2     2  24.3       24.3       0.05229   
   1   196   1U    0     1     1  24.3       24.3       0.07844   
   1   196   2     0     2     2  24.3       24.3       0.03922   
   1   197   1     0     2     2  24.4       24.4       0.05883   
   1   198   1U    0     1     1  24.4       24.4       0.08824   
   1   198   2     0     2     2  24.4       24.4       0.04412   
   1   199   1     0     2     2  24.5       24.5       0.06618   
   1   200   1U    0     1     1  24.5       24.5       0.09927   
   1   200   2     0     2     2  24.5       24.5       0.04964   
   1   201   1U    0     2     2  24.5       24.5       0.07446   
   1   201   2     0     2     2  24.6       24.6       0.03723   
   1   202   1     0     2     2  24.6       24.6       0.05584   
   1   203   1U    0     1     1  24.6       24.6       0.08376   
   1   203   2     0     2     2  24.7       24.7       0.04188   
   1   204   1     0     2     2  24.7       24.7       0.06282   
   1   205   1U    0     1     1  24.7       24.7       0.09423   
   1   205   2     0     2     2  24.8       24.8       0.04712   
   1   206   1     0     2     2  24.8       24.8       0.07067   
   1   207   1     0     2     2  24.9       24.9       0.1060    
   1   208   1U    0     1     1  24.9       24.9       0.1590    
   1   208   2     0     2     2  25.0       25.0       0.07951   
   1   209   1     0     2     2  25.1       25.1       0.1193    
   1   210   1U    0     1     1  25.1       25.1       0.1789    
   1   210   2     0     2     2  25.2       25.2       0.08945   
   1   211   1     0     2     2  25.4       25.4       0.1342    
   1   212   1U    0     1     1  25.4       25.4       0.2013    
   1   212   2     0     2     2  25.5       25.5       0.1006    
   1   213   1     0     2     2  25.6       25.6       0.1509    
   1   214   1     0     3     3  25.8       25.8       0.2264    
   1   215   1U    0     1     1  25.8       25.8       0.3396    
   1   215   2     0     2     2  26.0       26.0       0.1698    
   1   216   1     0     3     3  26.3       26.3       0.2547    
   1   217   1     0     4     4  26.7       26.7       0.3821    
   1   218   1     0     4     4  27.2       27.2       0.5731    
   1   219   1     0     4     4  28.1       28.1       0.8597    
   1   220   1U    0     1     1  28.1       28.1       1.289     
   1   220   2     0     2     2  28.7       28.7       0.6447    
   1   221   1U    0     1     1  28.7       28.7       0.9671    
   1   221   2U    0     1     1  28.7       28.7       0.4836    
   1   221   3U    0     1     1  28.7       28.7       0.2418    
   1   221   4     0     2     2  28.9       28.9       0.1209    
   1   222   1U    0     1     1  28.9       28.9       0.1813    
   1   222   2     0     1     1  28.9       28.9       0.09067   
   1   223   1U    0     1     1  28.9       28.9       0.1360    
   1   223   2     0     1     1  29.0       29.0       0.06800   
   1   224   1U    0     1     1  29.0       29.0       0.1020    
   1   224   2     0     1     1  29.1       29.1       0.05100   
   1   225   1     0     1     1  29.1       29.1       0.07650   
   1   226   1U    0     1     1  29.1       29.1       0.1148    
   1   226   2     0     2     2  29.2       29.2       0.05738   
   1   227   1U    0     1     1  29.2       29.2       0.08606   
   1   227   2     0     2     2  29.2       29.2       0.04303   
   1   228   1     0     2     2  29.3       29.3       0.06455   
   1   229   1U    0     1     1  29.3       29.3       0.09682   
   1   229   2     0     2     2  29.4       29.4       0.04841   
   1   230   1     0     2     2  29.4       29.4       0.07262   
   1   231   1U    0     1     1  29.4       29.4       0.1089    
   1   231   2     0     2     2  29.5       29.5       0.05446   
   1   232   1     0     2     2  29.6       29.6       0.08169   
   1   233   1U    0     1     1  29.6       29.6       0.1225    
   1   233   2     0     2     2  29.6       29.6       0.06127   
   1   234   1U    0     1     1  29.6       29.6       0.09190   
   1   234   2     0     2     2  29.7       29.7       0.04595   
   1   235   1     0     2     2  29.7       29.7       0.06893   
   1   236   1U    0     1     1  29.7       29.7       0.1034    
   1   236   2     0     2     2  29.8       29.8       0.05170   
   1   237   1     0     2     2  29.9       29.9       0.07754   
   1   238   1U    0     1     1  29.9       29.9       0.1163    
   1   238   2     0     2     2  29.9       29.9       0.05816   
   1   239   1     0     2     2  30.0       30.0       0.08724   
   1   240   1U    0     1     1  30.0       30.0       0.1309    
   1   240   2     0     2     2  30.1       30.1       0.06543   
   1   241   1     0     2     2  30.2       30.2       0.09814   
   1   242   1     0     2     2  30.3       30.3       0.1472    
   1   243   1U    0     1     1  30.3       30.3       0.2208    
   1   243   2     0     2     2  30.4       30.4       0.1104    
   1   244   1     0     2     2  30.6       30.6       0.1656    
   1   245   1U    0     1     1  30.6       30.6       0.2484    
   1   245   2     0     2     2  30.7       30.7       0.1242    
   1   246   1     0     2     2  30.9       30.9       0.1863    
   1   247   1U    0     2     2  30.9       30.9       0.2795    
   1   247   2     0     2     2  31.1       31.1       0.1397    
   1   248   1     0     3     3  31.3       31.3       0.2096    
   1   249   1     0     4     4  31.6       31.6       0.3144    
   1   250   1     0     4     4  32.0       32.0       0.4716    
   1   251   1     0     4     4  32.8       32.8       0.7074    
   1   252   1U    0     1     1  32.8       32.8       1.061     
   1   252   2     0     3     3  33.3       33.3       0.5306    
   1   253   1U    0     1     1  33.3       33.3       0.7959    
   1   253   2     0     2     2  33.7       33.7       0.3979    
   1   254   1U    0     1     1  33.7       33.7       0.5969    
   1   254   2U    0     1     1  33.7       33.7       0.2984    
   1   254   3     0     2     2  33.8       33.8       0.1492    
   1   255   1U    0     1     1  33.8       33.8       0.2238    
   1   255   2     0     1     1  33.9       33.9       0.1119    
   1   256   1U    0     1     1  33.9       33.9       0.1679    
   1   256   2     0     1     1  34.0       34.0       0.08394   
   1   257   1U    0     1     1  34.0       34.0       0.1259    
   1   257   2     0     1     1  34.1       34.1       0.06295   
   1   258   1U    0     1     1  34.1       34.1       0.09443   
   1   258   2     0     1     1  34.1       34.1       0.04721   
   1   259   1     0     2     2  34.2       34.2       0.07082   
   1   260   1U    0     1     1  34.2       34.2       0.1062    
   1   260   2     0     2     2  34.3       34.3       0.05312   
   1   261   1U    0     1     1  34.3       34.3       0.07968   
   1   261   2     0     2     2  34.3       34.3       0.03984   
   1   262   1     0     2     2  34.4       34.4       0.05976   
   1   263   1U    0     1     1  34.4       34.4       0.08963   
   1   263   2     0     2     2  34.4       34.4       0.04482   
   1   264   1     0     2     2  34.5       34.5       0.06723   
   1   265   1U    0     1     1  34.5       34.5       0.1008    
   1   265   2     0     2     2  34.5       34.5       0.05042   
   1   266   1     0     2     2  34.6       34.6       0.07563   
   1   267   1U    0     1     1  34.6       34.6       0.1134    
   1   267   2     0     2     2  34.7       34.7       0.05672   
   1   268   1U    0     2     2  34.7       34.7       0.08508   
   1   268   2     0     2     2  34.7       34.7       0.04254   
   1   269   1     0     2     2  34.8       34.8       0.06381   
   1   270   1U    0     1     1  34.8       34.8       0.09572   
   1   270   2     0     2     2  34.8       34.8       0.04786   
   1   271   1     0     2     2  34.9       34.9       0.07179   
   1   272   1     0     2     2  35.0       35.0       0.1077    
   1   273   1U    0     1     1  35.0       35.0       0.1615    
   1   273   2     0     2     2  35.1       35.1       0.08076   
   1   274   1     0     2     2  35.2       35.2       0.1211    
   1   275   1U    0     1     1  35.2       35.2       0.1817    
   1   275   2     0     2     2  35.3       35.3       0.09086   
   1   276   1     0     2     2  35.4       35.4       0.1363    
   1   277   1U    0     1     1  35.4       35.4       0.2044    
   1   277   2     0     2     2  35.5       35.5       0.1022    
   1   278   1     0     2     2  35.7       35.7       0.1533    
   1   279   1U    0     1     1  35.7       35.7       0.2300    
   1   279   2     0     2     2  35.8       35.8       0.1150    
   1   280   1     0     2     2  36.0       36.0       0.1725    
   1   281   1     0     3     3  36.2       36.2       0.2587    
   1   282   1     0     4     4  36.6       36.6       0.3881    
   1   283   1     0     4     4  37.2       37.2       0.5821    
   1   284   1     0     4     4  38.1       38.1       0.8732    
   1   285   1U    0     1     1  38.1       38.1       1.310     
   1   285   2     0     2     2  38.7       38.7       0.6549    
   1   286   1U    0     1     1  38.7       38.7       0.9824    
   1   286   2U    0     1     1  38.7       38.7       0.4912    
   1   286   3     0     2     2  39.0       39.0       0.2456    
   1   287   1U    0     1     1  39.0       39.0       0.3684    
   1   287   2U    0     1     1  39.0       39.0       0.1842    
   1   287   3     0     1     1  39.1       39.1       0.09210   
   1   288   1U    0     1     1  39.1       39.1       0.1381    
   1   288   2     0     1     1  39.1       39.1       0.06907   
   1   289   1U    0     1     1  39.1       39.1       0.1036    
   1   289   2     0     1     1  39.2       39.2       0.05180   
   1   290   1     0     2     2  39.3       39.3       0.07771   
   1   291   1U    0     1     1  39.3       39.3       0.1166    
   1   291   2     0     2     2  39.3       39.3       0.05828   
   1   292   1U    0     1     1  39.3       39.3       0.08742   
   1   292   2     0     2     2  39.4       39.4       0.04371   
   1   293   1     0     2     2  39.4       39.4       0.06557   
   1   294   1U    0     1     1  39.4       39.4       0.09835   
   1   294   2     0     2     2  39.5       39.5       0.04917   
   1   295   1     0     2     2  39.5       39.5       0.07376   
   1   296   1U    0     1     1  39.5       39.5       0.1106    
   1   296   2     0     2     2  39.6       39.6       0.05532   
   1   297   1     0     2     2  39.7       39.7       0.08298   
   1   298   1U    0     1     1  39.7       39.7       0.1245    
   1   298   2     0     2     2  39.7       39.7       0.06224   
   1   299   1U    0     1     1  39.7       39.7       0.09335   
   1   299   2     0     2     2  39.8       39.8       0.04668   
   1   300   1     0     2     2  39.9       39.9       0.07002   
   1   301   1U    0     2     2  39.9       39.9       0.1050    
   1   301   2     0     2     2  39.9       39.9       0.05251   
   1   302   1     0     2     2  40.0       40.0       0.07877   
   1   303   1U    0     1     1  40.0       40.0       0.1182    
   1   303   2     0     2     2  40.1       40.1       0.05908   
   1   304   1     0     2     2  40.1       40.1       0.08861   
   1   305   1U    0     1     1  40.1       40.1       0.1329    
   1   305   2     0     2     2  40.2       40.2       0.06646   
   1   306   1     0     2     2  40.3       40.3       0.09969   
   1   307   1     0     2     2  40.5       40.5       0.1495    
   1   308   1U    0     1     1  40.5       40.5       0.2243    
   1   308   2     0     2     2  40.6       40.6       0.1122    
   1   309   1     0     2     2  40.7       40.7       0.1682    
   1   310   1U    0     1     1  40.7       40.7       0.2523    
   1   310   2     0     2     2  40.9       40.9       0.1262    
   1   311   1     0     3     3  41.1       41.1       0.1893    
   1   312   1     0     4     4  41.3       41.3       0.2839    
   1   313   1U    0     1     1  41.3       41.3       0.4258    
   1   313   2     0     3     3  41.6       41.6       0.2129    
   1   314   1     0     4     4  41.9       41.9       0.3194    
   1   315   1     0     4     4  42.3       42.3       0.4790    
   1   316   1     0     3     3  43.1       43.1       0.7186    
   1   317   1U    0     1     1  43.1       43.1       1.078     
   1   317   2     0     2     2  43.6       43.6       0.5389    
   1   318   1U    0     1     1  43.6       43.6       0.8084    
   1   318   2     0     2     2  44.0       44.0       0.4042    
   1   319   1U    0     1     1  44.0       44.0       0.6063    
   1   319   2U    0     1     1  44.0       44.0       0.3031    
   1   319   3U    0     1     1  44.0       44.0       0.1516    
   1   319   4     0     1     1  44.1       44.1       0.07579   
   1   320   1U    0     1     1  44.1       44.1       0.1137    
   1   320   2     0     1     1  44.1       44.1       0.05684   
   1   321   1     0     2     2  44.2       44.2       0.08526   
   1   322   1U    0     1     1  44.2       44.2       0.1279    
   1   322   2     0     2     2  44.3       44.3       0.06395   
   1   323   1U    0     1     1  44.3       44.3       0.09592   
   1   323   2     0     2     2  44.3       44.3       0.04796   
   1   324   1     0     2     2  44.4       44.4       0.07194   
   1   325   1U    0     1     1  44.4       44.4       0.1079    
   1   325   2     0     2     2  44.5       44.5       0.05395   
   1   326   1     0     2     2  44.5       44.5       0.08093   
   1   327   1U    0     1     1  44.5       44.5       0.1214    
   1   327   2     0     2     2  44.6       44.6       0.06070   
   1   328   1     0     2     2  44.7       44.7       0.09105   
   1   329   1U    0     1     1  44.7       44.7       0.1366    
   1   329   2     0     2     2  44.8       44.8       0.06829   
   1   330   1U    0     1     1  44.8       44.8       0.1024    
   1   330   2     0     2     2  44.8       44.8       0.05121   
   1   331   1     0     2     2  44.9       44.9       0.07682   
   1   332   1     0     2     2  45.0       45.0       0.1049    
   1   333   1     0     2     2  45.1       45.1       0.1000    
   1   334   1     0     2     2  45.2       45.2       0.1000    
   1   335   1     0     2     2  45.3       45.3       0.1000    
   1   336   1     0     2     2  45.4       45.4       0.1000    
   1   337   1     0     2     2  45.5       45.5       0.1000    
   1   338   1     0     2     2  45.6       45.6       0.1000    
   1   339   1     0     2     2  45.7       45.7       0.1000    
   1   340   1     0     2     2  45.8       45.8       0.1000    
   1   341   1     0     2     2  45.9       45.9       0.1000    
   1   342   1     0     2     2  46.0       46.0       0.1000    
   1   343   1     0     2     2  46.1       46.1       0.1000    
   1   344   1     0     2     2  46.2       46.2       0.1000    
   1   345   1     0     2     2  46.3       46.3       0.1000    
   1   346   1     0     2     2  46.4       46.4       0.1000    
   1   347   1     0     2     2  46.5       46.5       0.1000    
   1   348   1     0     2     2  46.6       46.6       0.1000    
   1   349   1     0     2     2  46.7       46.7       0.1000    
   1   350   1     0     2     2  46.8       46.8       0.1000    
   1   351   1     0     2     2  46.9       46.9       0.1000    
   1   352   1     0     2     2  47.0       47.0       0.1000    
   1   353   1     0     2     2  47.1       47.1       0.1000    
   1   354   1     0     2     2  47.2       47.2       0.1000    
   1   355   1     0     2     2  47.3       47.3       0.1000    
   1   356   1     0     2     2  47.4       47.4       0.1000    
   1   357   1     0     2     2  47.5       47.5       0.1000    
   1   358   1     0     2     2  47.6       47.6       0.1000    
   1   359   1     0     2     2  47.7       47.7       0.1000    
   1   360   1     0     2     2  47.8       47.8       0.1000    
   1   361   1     0     2     2  47.9       47.9       0.1000    
   1   362   1     0     2     2  48.0       48.0       0.1000    
   1   363   1     0     2     2  48.1       48.1       0.1000    
   1   364   1     0     2     2  48.2       48.2       0.1000    
   1   365   1     0     2     2  48.3       48.3       0.1000    
   1   366   1     0     2     2  48.4       48.4       0.1000    
   1   367   1     0     2     2  48.5       48.5       0.1000    
   1   368   1     0     2     2  48.6       48.6       0.1000    
   1   369   1     0     2     2  48.7       48.7       0.1000    
   1   370   1     0     2     2  48.8       48.8       0.1000    
   1   371   1     0     2     2  48.9       48.9       0.1000    
   1   372   1     0     1     1  49.0       49.0       0.1000    
   1   373   1     0     1     1  49.1       49.1       0.1000    
   1   374   1     0     2     2  49.2       49.2       0.1000    
   1   375   1U    0     1     1  49.2       49.2       0.1000    
   1   375   2     0     2     2  49.2       49.2       0.05000   
   1   376   1     0     2     2  49.3       49.3       0.05000   
   1   377   1     0     2     2  49.4       49.4       0.07500   
   1   378   1     0     1     1  49.4       49.4       0.02500   
   1   379   1U    0     1     1  49.4       49.4       0.1000    
   1   379   2     0     2     2  49.5       49.5       0.05000   
   1   380   1     0     2     2  49.5       49.5       0.05000   
   1   381   1U    0     1     1  49.5       49.5       0.1000    
   1   381   2     0     2     2  49.5       49.5       0.05000   
   1   382   1     0     2     2  49.6       49.6       0.05000   
   1   383   1     0     2     2  49.7       49.7       0.07500   
   1   384   1     0     1     1  49.7       49.7       0.02500   
   1   385   1U    0     1     1  49.7       49.7       0.1000    
   1   385   2     0     2     2  49.8       49.8       0.05000   
   1   386   1     0     2     2  49.8       49.8       0.05000   
   1   387   1U    0     1     1  49.8       49.8       0.1000    
   1   387   2     0     2     2  49.9       49.9       0.05000   
   1   388   1     0     2     2  49.9       49.9       0.05000   
   1   389   1     0     2     2  50.0       50.0       0.1000    
   1   390   1     0     2     2  50.1       50.1       0.1000    
   1   391   1     0     2     2  50.2       50.2       0.1000    
   1   392   1     0     2     2  50.3       50.3       0.1000    
   1   393   1     0     2     2  50.4       50.4       0.1000    
   1   394   1     0     2     2  50.5       50.5       0.1000    
   1   395   1     0     2     2  50.6       50.6       0.1000    
   1   396   1     0     2     2  50.7       50.7       0.1000    
   1   397   1     0     2     2  50.8       50.8       0.1000    
   1   398   1     0     2     2  50.9       50.9       0.1000    
   1   399   1     0     2     2  51.0       51.0       0.1000    
   1   400   1     0     2     2  51.1       51.1       0.1000    
   1   401   1     0     2     2  51.2       51.2       0.1000    
   1   402   1     0     2     2  51.3       51.3       0.1000    
   1   403   1     0     2     2  51.4       51.4       0.1000    
   1   404   1     0     2     2  51.5       51.5       0.1000    
   1   405   1     0     2     2  51.6       51.6       0.1000    
   1   406   1     0     2     2  51.7       51.7       0.1000    
   1   407   1     0     2     2  51.8       51.8       0.1000    
   1   408   1     0     2     2  51.9       51.9       0.1000    
   1   409   1     0     2     2  52.0       52.0       0.1000    
   1   410   1     0     2     2  52.1       52.1       0.1000    
   1   411   1     0     2     2  52.2       52.2       0.1000    
   1   412   1     0     2     2  52.3       52.3       0.1000    
   1   413   1     0     2     2  52.4       52.4       0.1000    
   1   414   1     0     2     2  52.5       52.5       0.1000    
   1   415   1     0     2     2  52.6       52.6       0.1000    
   1   416   1     0     2     2  52.7       52.7       0.1000    
   1   417   1     0     2     2  52.8       52.8       0.1000    
   1   418   1     0     2     2  52.9       52.9       0.1000    
   1   419   1     0     2     2  53.0       53.0       0.1000    
   1   420   1     0     2     2  53.1       53.1       0.1000    
   1   421   1     0     2     2  53.2       53.2       0.1000    
   1   422   1     0     2     2  53.3       53.3       0.1000    
   1   423   1     0     2     2  53.4       53.4       0.1000    
   1   424   1     0     2     2  53.5       53.5       0.1000    
   1   425   1     0     2     2  53.6       53.6       0.1000    
   1   426   1     0     2     2  53.7       53.7       0.1000    
   1   427   1     0     2     2  53.8       53.8       0.1000    
   1   428   1     0     2     2  53.9       53.9       0.1000    
   1   429   1     0     1     1  54.0       54.0       0.1000    
   1   430   1     0     1     1  54.1       54.1       0.1000    
   1   431   1     0     1     1  54.2       54.2       0.1000    
   1   432   1U    0     1     1  54.2       54.2       0.1000    
   1   432   2     0     1     1  54.2       54.2       0.05000   
   1   433   1     0     2     2  54.3       54.3       0.05000   
   1   434   1U    0     1     1  54.3       54.3       0.1000    
   1   434   2     0     2     2  54.4       54.4       0.05000   
   1   435   1     0     2     2  54.4       54.4       0.05000   
   1   436   1U    0     1     1  54.4       54.4       0.1000    
   1   436   2     0     2     2  54.4       54.4       0.05000   
   1   437   1     0     2     2  54.5       54.5       0.05000   
   1   438   1     0     2     2  54.6       54.6       0.07500   
   1   439   1     0     2     2  54.6       54.6       0.02500   
   1   440   1U    0     1     1  54.6       54.6       0.1000    
   1   440   2     0     2     2  54.7       54.7       0.05000   
   1   441   1     0     2     2  54.7       54.7       0.05000   
   1   442   1     0     2     2  54.8       54.8       0.1000    
   1   443   1U    0     1     1  54.8       54.8       0.1000    
   1   443   2     0     2     2  54.9       54.9       0.05000   
   1   444   1     0     2     2  54.9       54.9       0.05000   
   1   445   1U    0     1     1  54.9       54.9       0.1000    
   1   445   2     0     2     2  54.9       54.9       0.05000   
   1   446   1     0     2     2  55.0       55.0       0.05000   
                          
 THE ANALYSIS HAS COMPLETED SUCCESSFULLY
