1

   Abaqus 2022.HF6                                  Date 13-Sep-2023   Time 16:04:12
   For use by RWTH AACHEN UNIVERSITY under license from Dassault Systemes or its subsidiary.



                         The Abaqus Software is a product of:

                           Dassault Systemes SIMULIA Corp.
                           1301 Atwood Avenue, Suite 101W
                              Johnston, RI 02919, USA
 


                   The Abaqus Software is available only under license
                   from Dassault Systemes or its subsidiary and may be
                   used or reproduced only in accordance with the terms
                   of such license.
 
                          On machine ncm0926.hpc.itc.rwth-aachen.de 
                          you are authorized to run
                          Abaqus/Standard until 30-Apr-2024

                          Your site id is: 200000000006963 


 
                    For assistance or any other information you may
                    obtain contact information for your local office
                    from the world wide web at:

                      http://www.3ds.com/products/simulia/locations/

 
                * * * * * * * * * * * * * * * * * * * * * * * * * * * * * * 
                *                                                         * 
                *                   *****************                     * 
                *                   *  N O T I C E  *                     * 
                *                   *****************                     * 
                *                                                         * 
                *                                                         * 
                *                     Abaqus 2022.HF6                     * 
                *                                                         * 
                *       BUILD ID: 2022_11_16-21.42.28 RELr424 176889      * 
                *                                                         * 
                *                                                         * 
                *  Please make sure you are using                         * 
                *  release Abaqus 2022.HF6 manuals                        * 
                *  plus the notes accompanying this release.              * 
                *                                                         * 
                *                                                         * 
                *                                                         * 
                *                                                         * 
                *                                                         * 
                *   This program may not be used for commercial purposes  * 
                *           without payment of a commercial fee.          * 
                *                                                         * 
                * * * * * * * * * * * * * * * * * * * * * * * * * * * * * * 


 



     PROCESSING PART, INSTANCE, AND ASSEMBLY INFORMATION
   *******************************************************


     END PROCESSING PART, INSTANCE, AND ASSEMBLY INFORMATION
   ***********************************************************




     OPTIONS BEING PROCESSED
   ***************************


  *Heading
  *Node
  *Element, type=C3D8
  *Elset, elset=ASSEMBLY_PART-1-1_SET-1
  *Elset, elset=ASSEMBLY_PART-1-1_SET-10
  *Elset, elset=ASSEMBLY_PART-1-1_SET-100
  *Elset, elset=ASSEMBLY_PART-1-1_SET-101
  *Elset, elset=ASSEMBLY_PART-1-1_SET-102
  *Elset, elset=ASSEMBLY_PART-1-1_SET-103
  *Elset, elset=ASSEMBLY_PART-1-1_SET-104
  *Elset, elset=ASSEMBLY_PART-1-1_SET-105
  *Elset, elset=ASSEMBLY_PART-1-1_SET-106
  *Elset, elset=ASSEMBLY_PART-1-1_SET-107
  *Elset, elset=ASSEMBLY_PART-1-1_SET-108
  *Elset, elset=ASSEMBLY_PART-1-1_SET-109
  *Elset, elset=ASSEMBLY_PART-1-1_SET-11
  *Elset, elset=ASSEMBLY_PART-1-1_SET-110
  *Elset, elset=ASSEMBLY_PART-1-1_SET-111
  *Elset, elset=ASSEMBLY_PART-1-1_SET-112
  *Elset, elset=ASSEMBLY_PART-1-1_SET-113
  *Elset, elset=ASSEMBLY_PART-1-1_SET-114
  *Elset, elset=ASSEMBLY_PART-1-1_SET-115
  *Elset, elset=ASSEMBLY_PART-1-1_SET-116
  *Elset, elset=ASSEMBLY_PART-1-1_SET-117
  *Elset, elset=ASSEMBLY_PART-1-1_SET-118
  *Elset, elset=ASSEMBLY_PART-1-1_SET-119
  *Elset, elset=ASSEMBLY_PART-1-1_SET-12
  *Elset, elset=ASSEMBLY_PART-1-1_SET-120
  *Elset, elset=ASSEMBLY_PART-1-1_SET-121
  *Elset, elset=ASSEMBLY_PART-1-1_SET-122
  *Elset, elset=ASSEMBLY_PART-1-1_SET-123
  *Elset, elset=ASSEMBLY_PART-1-1_SET-124
  *Elset, elset=ASSEMBLY_PART-1-1_SET-125
  *Elset, elset=ASSEMBLY_PART-1-1_SET-126
  *Elset, elset=ASSEMBLY_PART-1-1_SET-127
  *Elset, elset=ASSEMBLY_PART-1-1_SET-128
  *Elset, elset=ASSEMBLY_PART-1-1_SET-129
  *Elset, elset=ASSEMBLY_PART-1-1_SET-13
  *Elset, elset=ASSEMBLY_PART-1-1_SET-130
  *Elset, elset=ASSEMBLY_PART-1-1_SET-131
  *Elset, elset=ASSEMBLY_PART-1-1_SET-132
  *Elset, elset=ASSEMBLY_PART-1-1_SET-133
  *Elset, elset=ASSEMBLY_PART-1-1_SET-134
  *Elset, elset=ASSEMBLY_PART-1-1_SET-135
  *Elset, elset=ASSEMBLY_PART-1-1_SET-136
  *Elset, elset=ASSEMBLY_PART-1-1_SET-137
  *Elset, elset=ASSEMBLY_PART-1-1_SET-14
  *Elset, elset=ASSEMBLY_PART-1-1_SET-15
  *Elset, elset=ASSEMBLY_PART-1-1_SET-16
  *Elset, elset=ASSEMBLY_PART-1-1_SET-17
  *Elset, elset=ASSEMBLY_PART-1-1_SET-18
  *Elset, elset=ASSEMBLY_PART-1-1_SET-19
  *Elset, elset=ASSEMBLY_PART-1-1_SET-2
  *Elset, elset=ASSEMBLY_PART-1-1_SET-20
  *Elset, elset=ASSEMBLY_PART-1-1_SET-21
  *Elset, elset=ASSEMBLY_PART-1-1_SET-22
  *Elset, elset=ASSEMBLY_PART-1-1_SET-23
  *Elset, elset=ASSEMBLY_PART-1-1_SET-24
  *Elset, elset=ASSEMBLY_PART-1-1_SET-25
  *Elset, elset=ASSEMBLY_PART-1-1_SET-26
  *Elset, elset=ASSEMBLY_PART-1-1_SET-27
  *Elset, elset=ASSEMBLY_PART-1-1_SET-28
  *Elset, elset=ASSEMBLY_PART-1-1_SET-29
  *Elset, elset=ASSEMBLY_PART-1-1_SET-3
  *Elset, elset=ASSEMBLY_PART-1-1_SET-30
  *Elset, elset=ASSEMBLY_PART-1-1_SET-31
  *Elset, elset=ASSEMBLY_PART-1-1_SET-32
  *Elset, elset=ASSEMBLY_PART-1-1_SET-33
  *Elset, elset=ASSEMBLY_PART-1-1_SET-34
  *Elset, elset=ASSEMBLY_PART-1-1_SET-35
  *Elset, elset=ASSEMBLY_PART-1-1_SET-36
  *Elset, elset=ASSEMBLY_PART-1-1_SET-37
  *Elset, elset=ASSEMBLY_PART-1-1_SET-38
  *Elset, elset=ASSEMBLY_PART-1-1_SET-39
  *Elset, elset=ASSEMBLY_PART-1-1_SET-4
  *Elset, elset=ASSEMBLY_PART-1-1_SET-40
  *Elset, elset=ASSEMBLY_PART-1-1_SET-41
  *Elset, elset=ASSEMBLY_PART-1-1_SET-42
  *Elset, elset=ASSEMBLY_PART-1-1_SET-43
  *Elset, elset=ASSEMBLY_PART-1-1_SET-44
  *Elset, elset=ASSEMBLY_PART-1-1_SET-45
  *Elset, elset=ASSEMBLY_PART-1-1_SET-46
  *Elset, elset=ASSEMBLY_PART-1-1_SET-47
  *Elset, elset=ASSEMBLY_PART-1-1_SET-48
  *Elset, elset=ASSEMBLY_PART-1-1_SET-49
  *Elset, elset=ASSEMBLY_PART-1-1_SET-5
  *Elset, elset=ASSEMBLY_PART-1-1_SET-50
  *Elset, elset=ASSEMBLY_PART-1-1_SET-51
  *Elset, elset=ASSEMBLY_PART-1-1_SET-52
  *Elset, elset=ASSEMBLY_PART-1-1_SET-53
  *Elset, elset=ASSEMBLY_PART-1-1_SET-54
  *Elset, elset=ASSEMBLY_PART-1-1_SET-55
  *Elset, elset=ASSEMBLY_PART-1-1_SET-56
  *Elset, elset=ASSEMBLY_PART-1-1_SET-57
  *Elset, elset=ASSEMBLY_PART-1-1_SET-58
  *Elset, elset=ASSEMBLY_PART-1-1_SET-59
  *Elset, elset=ASSEMBLY_PART-1-1_SET-6
  *Elset, elset=ASSEMBLY_PART-1-1_SET-60
  *Elset, elset=ASSEMBLY_PART-1-1_SET-61
  *Elset, elset=ASSEMBLY_PART-1-1_SET-62
  *Elset, elset=ASSEMBLY_PART-1-1_SET-63
  *Elset, elset=ASSEMBLY_PART-1-1_SET-64
  *Elset, elset=ASSEMBLY_PART-1-1_SET-65
  *Elset, elset=ASSEMBLY_PART-1-1_SET-66
  *Elset, elset=ASSEMBLY_PART-1-1_SET-67
  *Elset, elset=ASSEMBLY_PART-1-1_SET-68
  *Elset, elset=ASSEMBLY_PART-1-1_SET-69
  *Elset, elset=ASSEMBLY_PART-1-1_SET-7
  *Elset, elset=ASSEMBLY_PART-1-1_SET-70
  *Elset, elset=ASSEMBLY_PART-1-1_SET-71
  *Elset, elset=ASSEMBLY_PART-1-1_SET-72
  *Elset, elset=ASSEMBLY_PART-1-1_SET-73
  *Elset, elset=ASSEMBLY_PART-1-1_SET-74
  *Elset, elset=ASSEMBLY_PART-1-1_SET-75
  *Elset, elset=ASSEMBLY_PART-1-1_SET-76
  *Elset, elset=ASSEMBLY_PART-1-1_SET-77
  *Elset, elset=ASSEMBLY_PART-1-1_SET-78
  *Elset, elset=ASSEMBLY_PART-1-1_SET-79
  *Elset, elset=ASSEMBLY_PART-1-1_SET-8
  *Elset, elset=ASSEMBLY_PART-1-1_SET-80
  *Elset, elset=ASSEMBLY_PART-1-1_SET-81
  *Elset, elset=ASSEMBLY_PART-1-1_SET-82
  *Elset, elset=ASSEMBLY_PART-1-1_SET-83
  *Elset, elset=ASSEMBLY_PART-1-1_SET-84
  *Elset, elset=ASSEMBLY_PART-1-1_SET-85
  *Elset, elset=ASSEMBLY_PART-1-1_SET-86
  *Elset, elset=ASSEMBLY_PART-1-1_SET-87
  *Elset, elset=ASSEMBLY_PART-1-1_SET-88
  *Elset, elset=ASSEMBLY_PART-1-1_SET-89
  *Elset, elset=ASSEMBLY_PART-1-1_SET-9
  *Elset, elset=ASSEMBLY_PART-1-1_SET-90
  *Elset, elset=ASSEMBLY_PART-1-1_SET-91
  *Elset, elset=ASSEMBLY_PART-1-1_SET-92
  *Elset, elset=ASSEMBLY_PART-1-1_SET-93
  *Elset, elset=ASSEMBLY_PART-1-1_SET-94
  *Elset, elset=ASSEMBLY_PART-1-1_SET-95
  *Elset, elset=ASSEMBLY_PART-1-1_SET-96
  *Elset, elset=ASSEMBLY_PART-1-1_SET-97
  *Elset, elset=ASSEMBLY_PART-1-1_SET-98
  *Elset, elset=ASSEMBLY_PART-1-1_SET-99
  *Nset, nset=ASSEMBLY_ADAPTIVENODES
  *Nset, nset=ASSEMBLY_EQN-SET-1
  *Nset, nset=ASSEMBLY_EQN-SET-10
  *Nset, nset=ASSEMBLY_EQN-SET-100
  *Nset, nset=ASSEMBLY_EQN-SET-101
  *Nset, nset=ASSEMBLY_EQN-SET-102
  *Nset, nset=ASSEMBLY_EQN-SET-103
  *Nset, nset=ASSEMBLY_EQN-SET-104
  *Nset, nset=ASSEMBLY_EQN-SET-105
  *Nset, nset=ASSEMBLY_EQN-SET-106
  *Nset, nset=ASSEMBLY_EQN-SET-107
  *Nset, nset=ASSEMBLY_EQN-SET-108
  *Nset, nset=ASSEMBLY_EQN-SET-109
  *Nset, nset=ASSEMBLY_EQN-SET-11
  *Nset, nset=ASSEMBLY_EQN-SET-110
  *Nset, nset=ASSEMBLY_EQN-SET-111
  *Nset, nset=ASSEMBLY_EQN-SET-112
  *Nset, nset=ASSEMBLY_EQN-SET-113
  *Nset, nset=ASSEMBLY_EQN-SET-114
  *Nset, nset=ASSEMBLY_EQN-SET-115
  *Nset, nset=ASSEMBLY_EQN-SET-116
  *Nset, nset=ASSEMBLY_EQN-SET-117
  *Nset, nset=ASSEMBLY_EQN-SET-118
  *Nset, nset=ASSEMBLY_EQN-SET-119
  *Nset, nset=ASSEMBLY_EQN-SET-12
  *Nset, nset=ASSEMBLY_EQN-SET-120
  *Nset, nset=ASSEMBLY_EQN-SET-121
  *Nset, nset=ASSEMBLY_EQN-SET-122
  *Nset, nset=ASSEMBLY_EQN-SET-123
  *Nset, nset=ASSEMBLY_EQN-SET-124
  *Nset, nset=ASSEMBLY_EQN-SET-125
  *Nset, nset=ASSEMBLY_EQN-SET-126
  *Nset, nset=ASSEMBLY_EQN-SET-127
  *Nset, nset=ASSEMBLY_EQN-SET-128
  *Nset, nset=ASSEMBLY_EQN-SET-129
  *Nset, nset=ASSEMBLY_EQN-SET-13
  *Nset, nset=ASSEMBLY_EQN-SET-130
  *Nset, nset=ASSEMBLY_EQN-SET-131
  *Nset, nset=ASSEMBLY_EQN-SET-132
  *Nset, nset=ASSEMBLY_EQN-SET-133
  *Nset, nset=ASSEMBLY_EQN-SET-134
  *Nset, nset=ASSEMBLY_EQN-SET-135
  *Nset, nset=ASSEMBLY_EQN-SET-136
  *Nset, nset=ASSEMBLY_EQN-SET-137
  *Nset, nset=ASSEMBLY_EQN-SET-138
  *Nset, nset=ASSEMBLY_EQN-SET-139
  *Nset, nset=ASSEMBLY_EQN-SET-14
  *Nset, nset=ASSEMBLY_EQN-SET-140
  *Nset, nset=ASSEMBLY_EQN-SET-141
  *Nset, nset=ASSEMBLY_EQN-SET-142
  *Nset, nset=ASSEMBLY_EQN-SET-143
  *Nset, nset=ASSEMBLY_EQN-SET-144
  *Nset, nset=ASSEMBLY_EQN-SET-145
  *Nset, nset=ASSEMBLY_EQN-SET-146
  *Nset, nset=ASSEMBLY_EQN-SET-147
  *Nset, nset=ASSEMBLY_EQN-SET-148
  *Nset, nset=ASSEMBLY_EQN-SET-149
  *Nset, nset=ASSEMBLY_EQN-SET-15
  *Nset, nset=ASSEMBLY_EQN-SET-150
  *Nset, nset=ASSEMBLY_EQN-SET-151
  *Nset, nset=ASSEMBLY_EQN-SET-152
  *Nset, nset=ASSEMBLY_EQN-SET-153
  *Nset, nset=ASSEMBLY_EQN-SET-154
  *Nset, nset=ASSEMBLY_EQN-SET-155
  *Nset, nset=ASSEMBLY_EQN-SET-156
  *Nset, nset=ASSEMBLY_EQN-SET-157
  *Nset, nset=ASSEMBLY_EQN-SET-158
  *Nset, nset=ASSEMBLY_EQN-SET-159
  *Nset, nset=ASSEMBLY_EQN-SET-16
  *Nset, nset=ASSEMBLY_EQN-SET-160
  *Nset, nset=ASSEMBLY_EQN-SET-161
  *Nset, nset=ASSEMBLY_EQN-SET-162
  *Nset, nset=ASSEMBLY_EQN-SET-163
  *Nset, nset=ASSEMBLY_EQN-SET-164
  *Nset, nset=ASSEMBLY_EQN-SET-165
  *Nset, nset=ASSEMBLY_EQN-SET-166
  *Nset, nset=ASSEMBLY_EQN-SET-167
  *Nset, nset=ASSEMBLY_EQN-SET-168
  *Nset, nset=ASSEMBLY_EQN-SET-169
  *Nset, nset=ASSEMBLY_EQN-SET-17
  *Nset, nset=ASSEMBLY_EQN-SET-170
  *Nset, nset=ASSEMBLY_EQN-SET-171
  *Nset, nset=ASSEMBLY_EQN-SET-172
  *Nset, nset=ASSEMBLY_EQN-SET-173
  *Nset, nset=ASSEMBLY_EQN-SET-174
  *Nset, nset=ASSEMBLY_EQN-SET-175
  *Nset, nset=ASSEMBLY_EQN-SET-176
  *Nset, nset=ASSEMBLY_EQN-SET-177
  *Nset, nset=ASSEMBLY_EQN-SET-178
  *Nset, nset=ASSEMBLY_EQN-SET-179
  *Nset, nset=ASSEMBLY_EQN-SET-18
  *Nset, nset=ASSEMBLY_EQN-SET-180
  *Nset, nset=ASSEMBLY_EQN-SET-181
  *Nset, nset=ASSEMBLY_EQN-SET-182
  *Nset, nset=ASSEMBLY_EQN-SET-183
  *Nset, nset=ASSEMBLY_EQN-SET-184
  *Nset, nset=ASSEMBLY_EQN-SET-185
  *Nset, nset=ASSEMBLY_EQN-SET-186
  *Nset, nset=ASSEMBLY_EQN-SET-187
  *Nset, nset=ASSEMBLY_EQN-SET-188
  *Nset, nset=ASSEMBLY_EQN-SET-189
  *Nset, nset=ASSEMBLY_EQN-SET-19
  *Nset, nset=ASSEMBLY_EQN-SET-190
  *Nset, nset=ASSEMBLY_EQN-SET-191
  *Nset, nset=ASSEMBLY_EQN-SET-192
  *Nset, nset=ASSEMBLY_EQN-SET-193
  *Nset, nset=ASSEMBLY_EQN-SET-194
  *Nset, nset=ASSEMBLY_EQN-SET-195
  *Nset, nset=ASSEMBLY_EQN-SET-196
  *Nset, nset=ASSEMBLY_EQN-SET-197
  *Nset, nset=ASSEMBLY_EQN-SET-198
  *Nset, nset=ASSEMBLY_EQN-SET-199
  *Nset, nset=ASSEMBLY_EQN-SET-2
  *Nset, nset=ASSEMBLY_EQN-SET-20
  *Nset, nset=ASSEMBLY_EQN-SET-200
  *Nset, nset=ASSEMBLY_EQN-SET-201
  *Nset, nset=ASSEMBLY_EQN-SET-202
  *Nset, nset=ASSEMBLY_EQN-SET-203
  *Nset, nset=ASSEMBLY_EQN-SET-204
  *Nset, nset=ASSEMBLY_EQN-SET-205
  *Nset, nset=ASSEMBLY_EQN-SET-206
  *Nset, nset=ASSEMBLY_EQN-SET-207
  *Nset, nset=ASSEMBLY_EQN-SET-208
  *Nset, nset=ASSEMBLY_EQN-SET-209
  *Nset, nset=ASSEMBLY_EQN-SET-21
  *Nset, nset=ASSEMBLY_EQN-SET-210
  *Nset, nset=ASSEMBLY_EQN-SET-211
  *Nset, nset=ASSEMBLY_EQN-SET-212
  *Nset, nset=ASSEMBLY_EQN-SET-213
  *Nset, nset=ASSEMBLY_EQN-SET-214
  *Nset, nset=ASSEMBLY_EQN-SET-215
  *Nset, nset=ASSEMBLY_EQN-SET-216
  *Nset, nset=ASSEMBLY_EQN-SET-217
  *Nset, nset=ASSEMBLY_EQN-SET-218
  *Nset, nset=ASSEMBLY_EQN-SET-219
  *Nset, nset=ASSEMBLY_EQN-SET-22
  *Nset, nset=ASSEMBLY_EQN-SET-220
  *Nset, nset=ASSEMBLY_EQN-SET-221
  *Nset, nset=ASSEMBLY_EQN-SET-222
  *Nset, nset=ASSEMBLY_EQN-SET-223
  *Nset, nset=ASSEMBLY_EQN-SET-224
  *Nset, nset=ASSEMBLY_EQN-SET-225
  *Nset, nset=ASSEMBLY_EQN-SET-226
  *Nset, nset=ASSEMBLY_EQN-SET-227
  *Nset, nset=ASSEMBLY_EQN-SET-228
  *Nset, nset=ASSEMBLY_EQN-SET-229
  *Nset, nset=ASSEMBLY_EQN-SET-23
  *Nset, nset=ASSEMBLY_EQN-SET-230
  *Nset, nset=ASSEMBLY_EQN-SET-231
  *Nset, nset=ASSEMBLY_EQN-SET-232
  *Nset, nset=ASSEMBLY_EQN-SET-233
  *Nset, nset=ASSEMBLY_EQN-SET-234
  *Nset, nset=ASSEMBLY_EQN-SET-235
  *Nset, nset=ASSEMBLY_EQN-SET-236
  *Nset, nset=ASSEMBLY_EQN-SET-237
  *Nset, nset=ASSEMBLY_EQN-SET-238
  *Nset, nset=ASSEMBLY_EQN-SET-239
  *Nset, nset=ASSEMBLY_EQN-SET-24
  *Nset, nset=ASSEMBLY_EQN-SET-240
  *Nset, nset=ASSEMBLY_EQN-SET-241
  *Nset, nset=ASSEMBLY_EQN-SET-242
  *Nset, nset=ASSEMBLY_EQN-SET-243
  *Nset, nset=ASSEMBLY_EQN-SET-244
  *Nset, nset=ASSEMBLY_EQN-SET-245
  *Nset, nset=ASSEMBLY_EQN-SET-246
  *Nset, nset=ASSEMBLY_EQN-SET-247
  *Nset, nset=ASSEMBLY_EQN-SET-248
  *Nset, nset=ASSEMBLY_EQN-SET-249
  *Nset, nset=ASSEMBLY_EQN-SET-25
  *Nset, nset=ASSEMBLY_EQN-SET-250
  *Nset, nset=ASSEMBLY_EQN-SET-251
  *Nset, nset=ASSEMBLY_EQN-SET-252
  *Nset, nset=ASSEMBLY_EQN-SET-253
  *Nset, nset=ASSEMBLY_EQN-SET-254
  *Nset, nset=ASSEMBLY_EQN-SET-255
  *Nset, nset=ASSEMBLY_EQN-SET-256
  *Nset, nset=ASSEMBLY_EQN-SET-257
  *Nset, nset=ASSEMBLY_EQN-SET-258
  *Nset, nset=ASSEMBLY_EQN-SET-259
  *Nset, nset=ASSEMBLY_EQN-SET-26
  *Nset, nset=ASSEMBLY_EQN-SET-260
  *Nset, nset=ASSEMBLY_EQN-SET-261
  *Nset, nset=ASSEMBLY_EQN-SET-262
  *Nset, nset=ASSEMBLY_EQN-SET-263
  *Nset, nset=ASSEMBLY_EQN-SET-264
  *Nset, nset=ASSEMBLY_EQN-SET-265
  *Nset, nset=ASSEMBLY_EQN-SET-266
  *Nset, nset=ASSEMBLY_EQN-SET-267
  *Nset, nset=ASSEMBLY_EQN-SET-268
  *Nset, nset=ASSEMBLY_EQN-SET-269
  *Nset, nset=ASSEMBLY_EQN-SET-27
  *Nset, nset=ASSEMBLY_EQN-SET-270
  *Nset, nset=ASSEMBLY_EQN-SET-271
  *Nset, nset=ASSEMBLY_EQN-SET-272
  *Nset, nset=ASSEMBLY_EQN-SET-273
  *Nset, nset=ASSEMBLY_EQN-SET-274
  *Nset, nset=ASSEMBLY_EQN-SET-275
  *Nset, nset=ASSEMBLY_EQN-SET-276
  *Nset, nset=ASSEMBLY_EQN-SET-277
  *Nset, nset=ASSEMBLY_EQN-SET-278
  *Nset, nset=ASSEMBLY_EQN-SET-279
  *Nset, nset=ASSEMBLY_EQN-SET-28
  *Nset, nset=ASSEMBLY_EQN-SET-280
  *Nset, nset=ASSEMBLY_EQN-SET-281
  *Nset, nset=ASSEMBLY_EQN-SET-282
  *Nset, nset=ASSEMBLY_EQN-SET-283
  *Nset, nset=ASSEMBLY_EQN-SET-284
  *Nset, nset=ASSEMBLY_EQN-SET-285
  *Nset, nset=ASSEMBLY_EQN-SET-286
  *Nset, nset=ASSEMBLY_EQN-SET-287
  *Nset, nset=ASSEMBLY_EQN-SET-288
  *Nset, nset=ASSEMBLY_EQN-SET-289
  *Nset, nset=ASSEMBLY_EQN-SET-29
  *Nset, nset=ASSEMBLY_EQN-SET-290
  *Nset, nset=ASSEMBLY_EQN-SET-291
  *Nset, nset=ASSEMBLY_EQN-SET-292
  *Nset, nset=ASSEMBLY_EQN-SET-293
  *Nset, nset=ASSEMBLY_EQN-SET-294
  *Nset, nset=ASSEMBLY_EQN-SET-295
  *Nset, nset=ASSEMBLY_EQN-SET-296
  *Nset, nset=ASSEMBLY_EQN-SET-297
  *Nset, nset=ASSEMBLY_EQN-SET-298
  *Nset, nset=ASSEMBLY_EQN-SET-299
  *Nset, nset=ASSEMBLY_EQN-SET-3
  *Nset, nset=ASSEMBLY_EQN-SET-30
  *Nset, nset=ASSEMBLY_EQN-SET-300
  *Nset, nset=ASSEMBLY_EQN-SET-301
  *Nset, nset=ASSEMBLY_EQN-SET-302
  *Nset, nset=ASSEMBLY_EQN-SET-303
  *Nset, nset=ASSEMBLY_EQN-SET-304
  *Nset, nset=ASSEMBLY_EQN-SET-305
  *Nset, nset=ASSEMBLY_EQN-SET-306
  *Nset, nset=ASSEMBLY_EQN-SET-307
  *Nset, nset=ASSEMBLY_EQN-SET-308
  *Nset, nset=ASSEMBLY_EQN-SET-309
  *Nset, nset=ASSEMBLY_EQN-SET-31
  *Nset, nset=ASSEMBLY_EQN-SET-310
  *Nset, nset=ASSEMBLY_EQN-SET-311
  *Nset, nset=ASSEMBLY_EQN-SET-312
  *Nset, nset=ASSEMBLY_EQN-SET-313
  *Nset, nset=ASSEMBLY_EQN-SET-314
  *Nset, nset=ASSEMBLY_EQN-SET-315
  *Nset, nset=ASSEMBLY_EQN-SET-316
  *Nset, nset=ASSEMBLY_EQN-SET-317
  *Nset, nset=ASSEMBLY_EQN-SET-318
  *Nset, nset=ASSEMBLY_EQN-SET-319
  *Nset, nset=ASSEMBLY_EQN-SET-32
  *Nset, nset=ASSEMBLY_EQN-SET-320
  *Nset, nset=ASSEMBLY_EQN-SET-321
  *Nset, nset=ASSEMBLY_EQN-SET-322
  *Nset, nset=ASSEMBLY_EQN-SET-323
  *Nset, nset=ASSEMBLY_EQN-SET-324
  *Nset, nset=ASSEMBLY_EQN-SET-325
  *Nset, nset=ASSEMBLY_EQN-SET-326
  *Nset, nset=ASSEMBLY_EQN-SET-327
  *Nset, nset=ASSEMBLY_EQN-SET-328
  *Nset, nset=ASSEMBLY_EQN-SET-329
  *Nset, nset=ASSEMBLY_EQN-SET-33
  *Nset, nset=ASSEMBLY_EQN-SET-330
  *Nset, nset=ASSEMBLY_EQN-SET-331
  *Nset, nset=ASSEMBLY_EQN-SET-332
  *Nset, nset=ASSEMBLY_EQN-SET-333
  *Nset, nset=ASSEMBLY_EQN-SET-334
  *Nset, nset=ASSEMBLY_EQN-SET-335
  *Nset, nset=ASSEMBLY_EQN-SET-336
  *Nset, nset=ASSEMBLY_EQN-SET-337
  *Nset, nset=ASSEMBLY_EQN-SET-338
  *Nset, nset=ASSEMBLY_EQN-SET-339
  *Nset, nset=ASSEMBLY_EQN-SET-34
  *Nset, nset=ASSEMBLY_EQN-SET-340
  *Nset, nset=ASSEMBLY_EQN-SET-341
  *Nset, nset=ASSEMBLY_EQN-SET-342
  *Nset, nset=ASSEMBLY_EQN-SET-343
  *Nset, nset=ASSEMBLY_EQN-SET-344
  *Nset, nset=ASSEMBLY_EQN-SET-345
  *Nset, nset=ASSEMBLY_EQN-SET-346
  *Nset, nset=ASSEMBLY_EQN-SET-347
  *Nset, nset=ASSEMBLY_EQN-SET-348
  *Nset, nset=ASSEMBLY_EQN-SET-349
  *Nset, nset=ASSEMBLY_EQN-SET-35
  *Nset, nset=ASSEMBLY_EQN-SET-350
  *Nset, nset=ASSEMBLY_EQN-SET-351
  *Nset, nset=ASSEMBLY_EQN-SET-352
  *Nset, nset=ASSEMBLY_EQN-SET-353
  *Nset, nset=ASSEMBLY_EQN-SET-354
  *Nset, nset=ASSEMBLY_EQN-SET-355
  *Nset, nset=ASSEMBLY_EQN-SET-356
  *Nset, nset=ASSEMBLY_EQN-SET-357
  *Nset, nset=ASSEMBLY_EQN-SET-358
  *Nset, nset=ASSEMBLY_EQN-SET-359
  *Nset, nset=ASSEMBLY_EQN-SET-36
  *Nset, nset=ASSEMBLY_EQN-SET-360
  *Nset, nset=ASSEMBLY_EQN-SET-361
  *Nset, nset=ASSEMBLY_EQN-SET-362
  *Nset, nset=ASSEMBLY_EQN-SET-363
  *Nset, nset=ASSEMBLY_EQN-SET-364
  *Nset, nset=ASSEMBLY_EQN-SET-365
  *Nset, nset=ASSEMBLY_EQN-SET-366
  *Nset, nset=ASSEMBLY_EQN-SET-367
  *Nset, nset=ASSEMBLY_EQN-SET-368
  *Nset, nset=ASSEMBLY_EQN-SET-369
  *Nset, nset=ASSEMBLY_EQN-SET-37
  *Nset, nset=ASSEMBLY_EQN-SET-370
  *Nset, nset=ASSEMBLY_EQN-SET-371
  *Nset, nset=ASSEMBLY_EQN-SET-372
  *Nset, nset=ASSEMBLY_EQN-SET-373
  *Nset, nset=ASSEMBLY_EQN-SET-374
  *Nset, nset=ASSEMBLY_EQN-SET-375
  *Nset, nset=ASSEMBLY_EQN-SET-376
  *Nset, nset=ASSEMBLY_EQN-SET-377
  *Nset, nset=ASSEMBLY_EQN-SET-378
  *Nset, nset=ASSEMBLY_EQN-SET-379
  *Nset, nset=ASSEMBLY_EQN-SET-38
  *Nset, nset=ASSEMBLY_EQN-SET-380
  *Nset, nset=ASSEMBLY_EQN-SET-381
  *Nset, nset=ASSEMBLY_EQN-SET-382
  *Nset, nset=ASSEMBLY_EQN-SET-383
  *Nset, nset=ASSEMBLY_EQN-SET-384
  *Nset, nset=ASSEMBLY_EQN-SET-385
  *Nset, nset=ASSEMBLY_EQN-SET-386
  *Nset, nset=ASSEMBLY_EQN-SET-387
  *Nset, nset=ASSEMBLY_EQN-SET-388
  *Nset, nset=ASSEMBLY_EQN-SET-389
  *Nset, nset=ASSEMBLY_EQN-SET-39
  *Nset, nset=ASSEMBLY_EQN-SET-390
  *Nset, nset=ASSEMBLY_EQN-SET-391
  *Nset, nset=ASSEMBLY_EQN-SET-392
  *Nset, nset=ASSEMBLY_EQN-SET-393
  *Nset, nset=ASSEMBLY_EQN-SET-394
  *Nset, nset=ASSEMBLY_EQN-SET-395
  *Nset, nset=ASSEMBLY_EQN-SET-396
  *Nset, nset=ASSEMBLY_EQN-SET-397
  *Nset, nset=ASSEMBLY_EQN-SET-398
  *Nset, nset=ASSEMBLY_EQN-SET-399
  *Nset, nset=ASSEMBLY_EQN-SET-4
  *Nset, nset=ASSEMBLY_EQN-SET-40
  *Nset, nset=ASSEMBLY_EQN-SET-400
  *Nset, nset=ASSEMBLY_EQN-SET-401
  *Nset, nset=ASSEMBLY_EQN-SET-402
  *Nset, nset=ASSEMBLY_EQN-SET-403
  *Nset, nset=ASSEMBLY_EQN-SET-404
  *Nset, nset=ASSEMBLY_EQN-SET-405
  *Nset, nset=ASSEMBLY_EQN-SET-406
  *Nset, nset=ASSEMBLY_EQN-SET-407
  *Nset, nset=ASSEMBLY_EQN-SET-408
  *Nset, nset=ASSEMBLY_EQN-SET-409
  *Nset, nset=ASSEMBLY_EQN-SET-41
  *Nset, nset=ASSEMBLY_EQN-SET-410
  *Nset, nset=ASSEMBLY_EQN-SET-411
  *Nset, nset=ASSEMBLY_EQN-SET-412
  *Nset, nset=ASSEMBLY_EQN-SET-413
  *Nset, nset=ASSEMBLY_EQN-SET-414
  *Nset, nset=ASSEMBLY_EQN-SET-415
  *Nset, nset=ASSEMBLY_EQN-SET-416
  *Nset, nset=ASSEMBLY_EQN-SET-417
  *Nset, nset=ASSEMBLY_EQN-SET-418
  *Nset, nset=ASSEMBLY_EQN-SET-419
  *Nset, nset=ASSEMBLY_EQN-SET-42
  *Nset, nset=ASSEMBLY_EQN-SET-420
  *Nset, nset=ASSEMBLY_EQN-SET-421
  *Nset, nset=ASSEMBLY_EQN-SET-422
  *Nset, nset=ASSEMBLY_EQN-SET-423
  *Nset, nset=ASSEMBLY_EQN-SET-424
  *Nset, nset=ASSEMBLY_EQN-SET-425
  *Nset, nset=ASSEMBLY_EQN-SET-426
  *Nset, nset=ASSEMBLY_EQN-SET-427
  *Nset, nset=ASSEMBLY_EQN-SET-428
  *Nset, nset=ASSEMBLY_EQN-SET-429
  *Nset, nset=ASSEMBLY_EQN-SET-43
  *Nset, nset=ASSEMBLY_EQN-SET-430
  *Nset, nset=ASSEMBLY_EQN-SET-431
  *Nset, nset=ASSEMBLY_EQN-SET-432
  *Nset, nset=ASSEMBLY_EQN-SET-433
  *Nset, nset=ASSEMBLY_EQN-SET-434
  *Nset, nset=ASSEMBLY_EQN-SET-435
  *Nset, nset=ASSEMBLY_EQN-SET-436
  *Nset, nset=ASSEMBLY_EQN-SET-437
  *Nset, nset=ASSEMBLY_EQN-SET-438
  *Nset, nset=ASSEMBLY_EQN-SET-439
  *Nset, nset=ASSEMBLY_EQN-SET-44
  *Nset, nset=ASSEMBLY_EQN-SET-440
  *Nset, nset=ASSEMBLY_EQN-SET-441
  *Nset, nset=ASSEMBLY_EQN-SET-442
  *Nset, nset=ASSEMBLY_EQN-SET-443
  *Nset, nset=ASSEMBLY_EQN-SET-444
  *Nset, nset=ASSEMBLY_EQN-SET-445
  *Nset, nset=ASSEMBLY_EQN-SET-446
  *Nset, nset=ASSEMBLY_EQN-SET-447
  *Nset, nset=ASSEMBLY_EQN-SET-448
  *Nset, nset=ASSEMBLY_EQN-SET-449
  *Nset, nset=ASSEMBLY_EQN-SET-45
  *Nset, nset=ASSEMBLY_EQN-SET-450
  *Nset, nset=ASSEMBLY_EQN-SET-451
  *Nset, nset=ASSEMBLY_EQN-SET-452
  *Nset, nset=ASSEMBLY_EQN-SET-453
  *Nset, nset=ASSEMBLY_EQN-SET-454
  *Nset, nset=ASSEMBLY_EQN-SET-455
  *Nset, nset=ASSEMBLY_EQN-SET-456
  *Nset, nset=ASSEMBLY_EQN-SET-457
  *Nset, nset=ASSEMBLY_EQN-SET-458
  *Nset, nset=ASSEMBLY_EQN-SET-459
  *Nset, nset=ASSEMBLY_EQN-SET-46
  *Nset, nset=ASSEMBLY_EQN-SET-460
  *Nset, nset=ASSEMBLY_EQN-SET-461
  *Nset, nset=ASSEMBLY_EQN-SET-462
  *Nset, nset=ASSEMBLY_EQN-SET-463
  *Nset, nset=ASSEMBLY_EQN-SET-464
  *Nset, nset=ASSEMBLY_EQN-SET-465
  *Nset, nset=ASSEMBLY_EQN-SET-466
  *Nset, nset=ASSEMBLY_EQN-SET-467
  *Nset, nset=ASSEMBLY_EQN-SET-468
  *Nset, nset=ASSEMBLY_EQN-SET-469
  *Nset, nset=ASSEMBLY_EQN-SET-47
  *Nset, nset=ASSEMBLY_EQN-SET-470
  *Nset, nset=ASSEMBLY_EQN-SET-471
  *Nset, nset=ASSEMBLY_EQN-SET-472
  *Nset, nset=ASSEMBLY_EQN-SET-473
  *Nset, nset=ASSEMBLY_EQN-SET-474
  *Nset, nset=ASSEMBLY_EQN-SET-475
  *Nset, nset=ASSEMBLY_EQN-SET-476
  *Nset, nset=ASSEMBLY_EQN-SET-477
  *Nset, nset=ASSEMBLY_EQN-SET-478
  *Nset, nset=ASSEMBLY_EQN-SET-479
  *Nset, nset=ASSEMBLY_EQN-SET-48
  *Nset, nset=ASSEMBLY_EQN-SET-480
  *Nset, nset=ASSEMBLY_EQN-SET-481
  *Nset, nset=ASSEMBLY_EQN-SET-482
  *Nset, nset=ASSEMBLY_EQN-SET-483
  *Nset, nset=ASSEMBLY_EQN-SET-484
  *Nset, nset=ASSEMBLY_EQN-SET-485
  *Nset, nset=ASSEMBLY_EQN-SET-486
  *Nset, nset=ASSEMBLY_EQN-SET-487
  *Nset, nset=ASSEMBLY_EQN-SET-488
  *Nset, nset=ASSEMBLY_EQN-SET-489
  *Nset, nset=ASSEMBLY_EQN-SET-49
  *Nset, nset=ASSEMBLY_EQN-SET-490
  *Nset, nset=ASSEMBLY_EQN-SET-491
  *Nset, nset=ASSEMBLY_EQN-SET-492
  *Nset, nset=ASSEMBLY_EQN-SET-493
  *Nset, nset=ASSEMBLY_EQN-SET-494
  *Nset, nset=ASSEMBLY_EQN-SET-495
  *Nset, nset=ASSEMBLY_EQN-SET-496
  *Nset, nset=ASSEMBLY_EQN-SET-497
  *Nset, nset=ASSEMBLY_EQN-SET-498
  *Nset, nset=ASSEMBLY_EQN-SET-499
  *Nset, nset=ASSEMBLY_EQN-SET-5
  *Nset, nset=ASSEMBLY_EQN-SET-50
  *Nset, nset=ASSEMBLY_EQN-SET-500
  *Nset, nset=ASSEMBLY_EQN-SET-501
  *Nset, nset=ASSEMBLY_EQN-SET-502
  *Nset, nset=ASSEMBLY_EQN-SET-503
  *Nset, nset=ASSEMBLY_EQN-SET-504
  *Nset, nset=ASSEMBLY_EQN-SET-505
  *Nset, nset=ASSEMBLY_EQN-SET-506
  *Nset, nset=ASSEMBLY_EQN-SET-507
  *Nset, nset=ASSEMBLY_EQN-SET-508
  *Nset, nset=ASSEMBLY_EQN-SET-509
  *Nset, nset=ASSEMBLY_EQN-SET-51
  *Nset, nset=ASSEMBLY_EQN-SET-510
  *Nset, nset=ASSEMBLY_EQN-SET-511
  *Nset, nset=ASSEMBLY_EQN-SET-512
  *Nset, nset=ASSEMBLY_EQN-SET-513
  *Nset, nset=ASSEMBLY_EQN-SET-514
  *Nset, nset=ASSEMBLY_EQN-SET-515
  *Nset, nset=ASSEMBLY_EQN-SET-516
  *Nset, nset=ASSEMBLY_EQN-SET-517
  *Nset, nset=ASSEMBLY_EQN-SET-518
  *Nset, nset=ASSEMBLY_EQN-SET-519
  *Nset, nset=ASSEMBLY_EQN-SET-52
  *Nset, nset=ASSEMBLY_EQN-SET-520
  *Nset, nset=ASSEMBLY_EQN-SET-521
  *Nset, nset=ASSEMBLY_EQN-SET-522
  *Nset, nset=ASSEMBLY_EQN-SET-523
  *Nset, nset=ASSEMBLY_EQN-SET-524
  *Nset, nset=ASSEMBLY_EQN-SET-525
  *Nset, nset=ASSEMBLY_EQN-SET-526
  *Nset, nset=ASSEMBLY_EQN-SET-527
  *Nset, nset=ASSEMBLY_EQN-SET-528
  *Nset, nset=ASSEMBLY_EQN-SET-529
  *Nset, nset=ASSEMBLY_EQN-SET-53
  *Nset, nset=ASSEMBLY_EQN-SET-530
  *Nset, nset=ASSEMBLY_EQN-SET-531
  *Nset, nset=ASSEMBLY_EQN-SET-532
  *Nset, nset=ASSEMBLY_EQN-SET-533
  *Nset, nset=ASSEMBLY_EQN-SET-534
  *Nset, nset=ASSEMBLY_EQN-SET-535
  *Nset, nset=ASSEMBLY_EQN-SET-536
  *Nset, nset=ASSEMBLY_EQN-SET-537
  *Nset, nset=ASSEMBLY_EQN-SET-538
  *Nset, nset=ASSEMBLY_EQN-SET-539
  *Nset, nset=ASSEMBLY_EQN-SET-54
  *Nset, nset=ASSEMBLY_EQN-SET-540
  *Nset, nset=ASSEMBLY_EQN-SET-541
  *Nset, nset=ASSEMBLY_EQN-SET-542
  *Nset, nset=ASSEMBLY_EQN-SET-543
  *Nset, nset=ASSEMBLY_EQN-SET-544
  *Nset, nset=ASSEMBLY_EQN-SET-545
  *Nset, nset=ASSEMBLY_EQN-SET-546
  *Nset, nset=ASSEMBLY_EQN-SET-547
  *Nset, nset=ASSEMBLY_EQN-SET-548
  *Nset, nset=ASSEMBLY_EQN-SET-549
  *Nset, nset=ASSEMBLY_EQN-SET-55
  *Nset, nset=ASSEMBLY_EQN-SET-550
  *Nset, nset=ASSEMBLY_EQN-SET-551
  *Nset, nset=ASSEMBLY_EQN-SET-552
  *Nset, nset=ASSEMBLY_EQN-SET-553
  *Nset, nset=ASSEMBLY_EQN-SET-554
  *Nset, nset=ASSEMBLY_EQN-SET-555
  *Nset, nset=ASSEMBLY_EQN-SET-556
  *Nset, nset=ASSEMBLY_EQN-SET-557
  *Nset, nset=ASSEMBLY_EQN-SET-558
  *Nset, nset=ASSEMBLY_EQN-SET-559
  *Nset, nset=ASSEMBLY_EQN-SET-56
  *Nset, nset=ASSEMBLY_EQN-SET-560
  *Nset, nset=ASSEMBLY_EQN-SET-561
  *Nset, nset=ASSEMBLY_EQN-SET-562
  *Nset, nset=ASSEMBLY_EQN-SET-563
  *Nset, nset=ASSEMBLY_EQN-SET-564
  *Nset, nset=ASSEMBLY_EQN-SET-565
  *Nset, nset=ASSEMBLY_EQN-SET-566
  *Nset, nset=ASSEMBLY_EQN-SET-567
  *Nset, nset=ASSEMBLY_EQN-SET-568
  *Nset, nset=ASSEMBLY_EQN-SET-569
  *Nset, nset=ASSEMBLY_EQN-SET-57
  *Nset, nset=ASSEMBLY_EQN-SET-570
  *Nset, nset=ASSEMBLY_EQN-SET-571
  *Nset, nset=ASSEMBLY_EQN-SET-572
  *Nset, nset=ASSEMBLY_EQN-SET-573
  *Nset, nset=ASSEMBLY_EQN-SET-574
  *Nset, nset=ASSEMBLY_EQN-SET-575
  *Nset, nset=ASSEMBLY_EQN-SET-576
  *Nset, nset=ASSEMBLY_EQN-SET-577
  *Nset, nset=ASSEMBLY_EQN-SET-578
  *Nset, nset=ASSEMBLY_EQN-SET-579
  *Nset, nset=ASSEMBLY_EQN-SET-58
  *Nset, nset=ASSEMBLY_EQN-SET-580
  *Nset, nset=ASSEMBLY_EQN-SET-581
  *Nset, nset=ASSEMBLY_EQN-SET-582
  *Nset, nset=ASSEMBLY_EQN-SET-583
  *Nset, nset=ASSEMBLY_EQN-SET-584
  *Nset, nset=ASSEMBLY_EQN-SET-585
  *Nset, nset=ASSEMBLY_EQN-SET-586
  *Nset, nset=ASSEMBLY_EQN-SET-587
  *Nset, nset=ASSEMBLY_EQN-SET-588
  *Nset, nset=ASSEMBLY_EQN-SET-589
  *Nset, nset=ASSEMBLY_EQN-SET-59
  *Nset, nset=ASSEMBLY_EQN-SET-590
  *Nset, nset=ASSEMBLY_EQN-SET-591
  *Nset, nset=ASSEMBLY_EQN-SET-592
  *Nset, nset=ASSEMBLY_EQN-SET-593
  *Nset, nset=ASSEMBLY_EQN-SET-594
  *Nset, nset=ASSEMBLY_EQN-SET-595
  *Nset, nset=ASSEMBLY_EQN-SET-596
  *Nset, nset=ASSEMBLY_EQN-SET-597
  *Nset, nset=ASSEMBLY_EQN-SET-598
  *Nset, nset=ASSEMBLY_EQN-SET-599
  *Nset, nset=ASSEMBLY_EQN-SET-6
  *Nset, nset=ASSEMBLY_EQN-SET-60
  *Nset, nset=ASSEMBLY_EQN-SET-600
  *Nset, nset=ASSEMBLY_EQN-SET-601
  *Nset, nset=ASSEMBLY_EQN-SET-602
  *Nset, nset=ASSEMBLY_EQN-SET-603
  *Nset, nset=ASSEMBLY_EQN-SET-604
  *Nset, nset=ASSEMBLY_EQN-SET-605
  *Nset, nset=ASSEMBLY_EQN-SET-606
  *Nset, nset=ASSEMBLY_EQN-SET-607
  *Nset, nset=ASSEMBLY_EQN-SET-608
  *Nset, nset=ASSEMBLY_EQN-SET-609
  *Nset, nset=ASSEMBLY_EQN-SET-61
  *Nset, nset=ASSEMBLY_EQN-SET-610
  *Nset, nset=ASSEMBLY_EQN-SET-611
  *Nset, nset=ASSEMBLY_EQN-SET-612
  *Nset, nset=ASSEMBLY_EQN-SET-613
  *Nset, nset=ASSEMBLY_EQN-SET-614
  *Nset, nset=ASSEMBLY_EQN-SET-615
  *Nset, nset=ASSEMBLY_EQN-SET-616
  *Nset, nset=ASSEMBLY_EQN-SET-617
  *Nset, nset=ASSEMBLY_EQN-SET-618
  *Nset, nset=ASSEMBLY_EQN-SET-619
  *Nset, nset=ASSEMBLY_EQN-SET-62
  *Nset, nset=ASSEMBLY_EQN-SET-620
  *Nset, nset=ASSEMBLY_EQN-SET-621
  *Nset, nset=ASSEMBLY_EQN-SET-622
  *Nset, nset=ASSEMBLY_EQN-SET-623
  *Nset, nset=ASSEMBLY_EQN-SET-624
  *Nset, nset=ASSEMBLY_EQN-SET-625
  *Nset, nset=ASSEMBLY_EQN-SET-626
  *Nset, nset=ASSEMBLY_EQN-SET-627
  *Nset, nset=ASSEMBLY_EQN-SET-628
  *Nset, nset=ASSEMBLY_EQN-SET-629
  *Nset, nset=ASSEMBLY_EQN-SET-63
  *Nset, nset=ASSEMBLY_EQN-SET-630
  *Nset, nset=ASSEMBLY_EQN-SET-631
  *Nset, nset=ASSEMBLY_EQN-SET-632
  *Nset, nset=ASSEMBLY_EQN-SET-633
  *Nset, nset=ASSEMBLY_EQN-SET-634
  *Nset, nset=ASSEMBLY_EQN-SET-635
  *Nset, nset=ASSEMBLY_EQN-SET-636
  *Nset, nset=ASSEMBLY_EQN-SET-637
  *Nset, nset=ASSEMBLY_EQN-SET-638
  *Nset, nset=ASSEMBLY_EQN-SET-639
  *Nset, nset=ASSEMBLY_EQN-SET-64
  *Nset, nset=ASSEMBLY_EQN-SET-640
  *Nset, nset=ASSEMBLY_EQN-SET-641
  *Nset, nset=ASSEMBLY_EQN-SET-642
  *Nset, nset=ASSEMBLY_EQN-SET-643
  *Nset, nset=ASSEMBLY_EQN-SET-644
  *Nset, nset=ASSEMBLY_EQN-SET-645
  *Nset, nset=ASSEMBLY_EQN-SET-646
  *Nset, nset=ASSEMBLY_EQN-SET-647
  *Nset, nset=ASSEMBLY_EQN-SET-648
  *Nset, nset=ASSEMBLY_EQN-SET-649
  *Nset, nset=ASSEMBLY_EQN-SET-65
  *Nset, nset=ASSEMBLY_EQN-SET-650
  *Nset, nset=ASSEMBLY_EQN-SET-651
  *Nset, nset=ASSEMBLY_EQN-SET-652
  *Nset, nset=ASSEMBLY_EQN-SET-653
  *Nset, nset=ASSEMBLY_EQN-SET-654
  *Nset, nset=ASSEMBLY_EQN-SET-655
  *Nset, nset=ASSEMBLY_EQN-SET-656
  *Nset, nset=ASSEMBLY_EQN-SET-657
  *Nset, nset=ASSEMBLY_EQN-SET-658
  *Nset, nset=ASSEMBLY_EQN-SET-659
  *Nset, nset=ASSEMBLY_EQN-SET-66
  *Nset, nset=ASSEMBLY_EQN-SET-660
  *Nset, nset=ASSEMBLY_EQN-SET-661
  *Nset, nset=ASSEMBLY_EQN-SET-662
  *Nset, nset=ASSEMBLY_EQN-SET-663
  *Nset, nset=ASSEMBLY_EQN-SET-664
  *Nset, nset=ASSEMBLY_EQN-SET-665
  *Nset, nset=ASSEMBLY_EQN-SET-666
  *Nset, nset=ASSEMBLY_EQN-SET-667
  *Nset, nset=ASSEMBLY_EQN-SET-668
  *Nset, nset=ASSEMBLY_EQN-SET-669
  *Nset, nset=ASSEMBLY_EQN-SET-67
  *Nset, nset=ASSEMBLY_EQN-SET-670
  *Nset, nset=ASSEMBLY_EQN-SET-671
  *Nset, nset=ASSEMBLY_EQN-SET-672
  *Nset, nset=ASSEMBLY_EQN-SET-673
  *Nset, nset=ASSEMBLY_EQN-SET-674
  *Nset, nset=ASSEMBLY_EQN-SET-675
  *Nset, nset=ASSEMBLY_EQN-SET-676
  *Nset, nset=ASSEMBLY_EQN-SET-677
  *Nset, nset=ASSEMBLY_EQN-SET-678
  *Nset, nset=ASSEMBLY_EQN-SET-679
  *Nset, nset=ASSEMBLY_EQN-SET-68
  *Nset, nset=ASSEMBLY_EQN-SET-680
  *Nset, nset=ASSEMBLY_EQN-SET-681
  *Nset, nset=ASSEMBLY_EQN-SET-682
  *Nset, nset=ASSEMBLY_EQN-SET-683
  *Nset, nset=ASSEMBLY_EQN-SET-684
  *Nset, nset=ASSEMBLY_EQN-SET-685
  *Nset, nset=ASSEMBLY_EQN-SET-686
  *Nset, nset=ASSEMBLY_EQN-SET-687
  *Nset, nset=ASSEMBLY_EQN-SET-688
  *Nset, nset=ASSEMBLY_EQN-SET-689
  *Nset, nset=ASSEMBLY_EQN-SET-69
  *Nset, nset=ASSEMBLY_EQN-SET-690
  *Nset, nset=ASSEMBLY_EQN-SET-691
  *Nset, nset=ASSEMBLY_EQN-SET-692
  *Nset, nset=ASSEMBLY_EQN-SET-693
  *Nset, nset=ASSEMBLY_EQN-SET-694
  *Nset, nset=ASSEMBLY_EQN-SET-695
  *Nset, nset=ASSEMBLY_EQN-SET-696
  *Nset, nset=ASSEMBLY_EQN-SET-697
  *Nset, nset=ASSEMBLY_EQN-SET-698
  *Nset, nset=ASSEMBLY_EQN-SET-699
  *Nset, nset=ASSEMBLY_EQN-SET-7
  *Nset, nset=ASSEMBLY_EQN-SET-70
  *Nset, nset=ASSEMBLY_EQN-SET-700
  *Nset, nset=ASSEMBLY_EQN-SET-701
  *Nset, nset=ASSEMBLY_EQN-SET-702
  *Nset, nset=ASSEMBLY_EQN-SET-703
  *Nset, nset=ASSEMBLY_EQN-SET-704
  *Nset, nset=ASSEMBLY_EQN-SET-705
  *Nset, nset=ASSEMBLY_EQN-SET-706
  *Nset, nset=ASSEMBLY_EQN-SET-707
  *Nset, nset=ASSEMBLY_EQN-SET-708
  *Nset, nset=ASSEMBLY_EQN-SET-709
  *Nset, nset=ASSEMBLY_EQN-SET-71
  *Nset, nset=ASSEMBLY_EQN-SET-710
  *Nset, nset=ASSEMBLY_EQN-SET-711
  *Nset, nset=ASSEMBLY_EQN-SET-712
  *Nset, nset=ASSEMBLY_EQN-SET-713
  *Nset, nset=ASSEMBLY_EQN-SET-714
  *Nset, nset=ASSEMBLY_EQN-SET-715
  *Nset, nset=ASSEMBLY_EQN-SET-716
  *Nset, nset=ASSEMBLY_EQN-SET-717
  *Nset, nset=ASSEMBLY_EQN-SET-718
  *Nset, nset=ASSEMBLY_EQN-SET-719
  *Nset, nset=ASSEMBLY_EQN-SET-72
  *Nset, nset=ASSEMBLY_EQN-SET-720
  *Nset, nset=ASSEMBLY_EQN-SET-721
  *Nset, nset=ASSEMBLY_EQN-SET-722
  *Nset, nset=ASSEMBLY_EQN-SET-723
  *Nset, nset=ASSEMBLY_EQN-SET-724
  *Nset, nset=ASSEMBLY_EQN-SET-725
  *Nset, nset=ASSEMBLY_EQN-SET-726
  *Nset, nset=ASSEMBLY_EQN-SET-727
  *Nset, nset=ASSEMBLY_EQN-SET-728
  *Nset, nset=ASSEMBLY_EQN-SET-73
  *Nset, nset=ASSEMBLY_EQN-SET-74
  *Nset, nset=ASSEMBLY_EQN-SET-75
  *Nset, nset=ASSEMBLY_EQN-SET-76
  *Nset, nset=ASSEMBLY_EQN-SET-77
  *Nset, nset=ASSEMBLY_EQN-SET-78
  *Nset, nset=ASSEMBLY_EQN-SET-79
  *Nset, nset=ASSEMBLY_EQN-SET-8
  *Nset, nset=ASSEMBLY_EQN-SET-80
  *Nset, nset=ASSEMBLY_EQN-SET-81
  *Nset, nset=ASSEMBLY_EQN-SET-82
  *Nset, nset=ASSEMBLY_EQN-SET-83
  *Nset, nset=ASSEMBLY_EQN-SET-84
  *Nset, nset=ASSEMBLY_EQN-SET-85
  *Nset, nset=ASSEMBLY_EQN-SET-86
  *Nset, nset=ASSEMBLY_EQN-SET-87
  *Nset, nset=ASSEMBLY_EQN-SET-88
  *Nset, nset=ASSEMBLY_EQN-SET-89
  *Nset, nset=ASSEMBLY_EQN-SET-9
  *Nset, nset=ASSEMBLY_EQN-SET-90
  *Nset, nset=ASSEMBLY_EQN-SET-91
  *Nset, nset=ASSEMBLY_EQN-SET-92
  *Nset, nset=ASSEMBLY_EQN-SET-93
  *Nset, nset=ASSEMBLY_EQN-SET-94
  *Nset, nset=ASSEMBLY_EQN-SET-95
  *Nset, nset=ASSEMBLY_EQN-SET-96
  *Nset, nset=ASSEMBLY_EQN-SET-97
  *Nset, nset=ASSEMBLY_EQN-SET-98
  *Nset, nset=ASSEMBLY_EQN-SET-99
  *Nset, nset=ASSEMBLY_H1
  *Nset, nset=ASSEMBLY_H2
  *Nset, nset=ASSEMBLY_H3
  *Nset, nset=ASSEMBLY_H4
  *Nset, nset=ASSEMBLY_V1
  *Nset, nset=ASSEMBLY_V2
  *Nset, nset=ASSEMBLY_V3
  *Nset, nset=ASSEMBLY_V4
  *Elset, elset=ASSEMBLY_ADAPTIVEELEMENTS
  *material, name=FERRITE_1
  *depvar
  *usermaterial, constants=2
  *material, name=PEARLITE_1
  *depvar
  *usermaterial, constants=2
  *material, name=FERRITE_2
  *depvar
  *usermaterial, constants=2
  *material, name=FERRITE_3
  *depvar
  *usermaterial, constants=2
  *material, name=FERRITE_4
  *depvar
  *usermaterial, constants=2
  *material, name=FERRITE_5
  *depvar
  *usermaterial, constants=2
  *material, name=FERRITE_6
  *depvar
  *usermaterial, constants=2
  *material, name=FERRITE_7
  *depvar
  *usermaterial, constants=2
  *material, name=FERRITE_8
  *depvar
  *usermaterial, constants=2
  *material, name=PEARLITE_2
  *depvar
  *usermaterial, constants=2
  *material, name=PEARLITE_3
  *depvar
  *usermaterial, constants=2
  *material, name=FERRITE_9
  *depvar
  *usermaterial, constants=2
  *material, name=PEARLITE_4
  *depvar
  *usermaterial, constants=2
  *material, name=FERRITE_10
  *depvar
  *usermaterial, constants=2
  *material, name=FERRITE_11
  *depvar
  *usermaterial, constants=2
  *material, name=PEARLITE_5
  *depvar
  *usermaterial, constants=2
  *material, name=FERRITE_12
  *depvar
  *usermaterial, constants=2
  *material, name=PEARLITE_6
  *depvar
  *usermaterial, constants=2
  *material, name=FERRITE_13
  *depvar
  *usermaterial, constants=2
  *material, name=PEARLITE_7
  *depvar
  *usermaterial, constants=2
  *material, name=PEARLITE_8
  *depvar
  *usermaterial, constants=2
  *material, name=FERRITE_14
  *depvar
  *usermaterial, constants=2
  *material, name=FERRITE_15
  *depvar
  *usermaterial, constants=2
  *material, name=FERRITE_16
  *depvar
  *usermaterial, constants=2
  *material, name=FERRITE_17
  *depvar
  *usermaterial, constants=2
  *material, name=FERRITE_18
  *depvar
  *usermaterial, constants=2
  *material, name=FERRITE_19
  *depvar
  *usermaterial, constants=2
  *material, name=FERRITE_20
  *depvar
  *usermaterial, constants=2
  *material, name=PEARLITE_9
  *depvar
  *usermaterial, constants=2
  *material, name=FERRITE_21
  *depvar
  *usermaterial, constants=2
  *material, name=FERRITE_22
  *depvar
  *usermaterial, constants=2
  *material, name=FERRITE_23
  *depvar
  *usermaterial, constants=2
  *material, name=PEARLITE_10
  *depvar
  *usermaterial, constants=2
  *material, name=PEARLITE_11
  *depvar
  *usermaterial, constants=2
  *material, name=FERRITE_24
  *depvar
  *usermaterial, constants=2
  *material, name=PEARLITE_12
  *depvar
  *usermaterial, constants=2
  *material, name=FERRITE_25
  *depvar
  *usermaterial, constants=2
  *material, name=FERRITE_26
  *depvar
  *usermaterial, constants=2
  *material, name=FERRITE_27
  *depvar
  *usermaterial, constants=2
  *material, name=PEARLITE_13
  *depvar
  *usermaterial, constants=2
  *material, name=FERRITE_28
  *depvar
  *usermaterial, constants=2
  *material, name=FERRITE_29
  *depvar
  *usermaterial, constants=2
  *material, name=FERRITE_30
  *depvar
  *usermaterial, constants=2
  *material, name=PEARLITE_14
  *depvar
  *usermaterial, constants=2
  *material, name=FERRITE_31
  *depvar
  *usermaterial, constants=2
  *material, name=PEARLITE_15
  *depvar
  *usermaterial, constants=2
  *material, name=FERRITE_32
  *depvar
  *usermaterial, constants=2
  *material, name=PEARLITE_16
  *depvar
  *usermaterial, constants=2
  *material, name=PEARLITE_17
  *depvar
  *usermaterial, constants=2
  *material, name=PEARLITE_18
  *depvar
  *usermaterial, constants=2
  *material, name=PEARLITE_19
  *depvar
  *usermaterial, constants=2
  *material, name=PEARLITE_20
  *depvar
  *usermaterial, constants=2
  *material, name=FERRITE_33
  *depvar
  *usermaterial, constants=2
  *material, name=FERRITE_34
  *depvar
  *usermaterial, constants=2
  *material, name=PEARLITE_21
  *depvar
  *usermaterial, constants=2
  *material, name=FERRITE_35
  *depvar
  *usermaterial, constants=2
  *material, name=PEARLITE_22
  *depvar
  *usermaterial, constants=2
  *material, name=FERRITE_36
  *depvar
  *usermaterial, constants=2
  *material, name=FERRITE_37
  *depvar
  *usermaterial, constants=2
  *material, name=FERRITE_38
  *depvar
  *usermaterial, constants=2
  *material, name=FERRITE_39
  *depvar
  *usermaterial, constants=2
  *material, name=FERRITE_40
  *depvar
  *usermaterial, constants=2
  *material, name=FERRITE_41
  *depvar
  *usermaterial, constants=2
  *material, name=FERRITE_42
  *depvar
  *usermaterial, constants=2
  *material, name=FERRITE_43
  *depvar
  *usermaterial, constants=2
  *material, name=FERRITE_44
  *depvar
  *usermaterial, constants=2
  *material, name=PEARLITE_23
  *depvar
  *usermaterial, constants=2
  *material, name=FERRITE_45
  *depvar
  *usermaterial, constants=2
  *material, name=FERRITE_46
  *depvar
  *usermaterial, constants=2
  *material, name=FERRITE_47
  *depvar
  *usermaterial, constants=2
  *material, name=FERRITE_48
  *depvar
  *usermaterial, constants=2
  *material, name=PEARLITE_24
  *depvar
  *usermaterial, constants=2
  *material, name=FERRITE_49
  *depvar
  *usermaterial, constants=2
  *material, name=FERRITE_50
  *depvar
  *usermaterial, constants=2
  *material, name=FERRITE_51
  *depvar
  *usermaterial, constants=2
  *material, name=FERRITE_52
  *depvar
  *usermaterial, constants=2
  *material, name=FERRITE_53
  *depvar
  *usermaterial, constants=2
  *material, name=PEARLITE_25
  *depvar
  *usermaterial, constants=2
  *material, name=FERRITE_54
  *depvar
  *usermaterial, constants=2
  *material, name=PEARLITE_26
  *depvar
  *usermaterial, constants=2
  *material, name=PEARLITE_27
  *depvar
  *usermaterial, constants=2
  *material, name=PEARLITE_28
  *depvar
  *usermaterial, constants=2
  *material, name=PEARLITE_29
  *depvar
  *usermaterial, constants=2
  *material, name=FERRITE_55
  *depvar
  *usermaterial, constants=2
  *material, name=PEARLITE_30
  *depvar
  *usermaterial, constants=2
  *material, name=FERRITE_56
  *depvar
  *usermaterial, constants=2
  *material, name=FERRITE_57
  *depvar
  *usermaterial, constants=2
  *material, name=FERRITE_58
  *depvar
  *usermaterial, constants=2
  *material, name=FERRITE_59
  *depvar
  *usermaterial, constants=2
  *material, name=FERRITE_60
  *depvar
  *usermaterial, constants=2
  *material, name=FERRITE_61
  *depvar
  *usermaterial, constants=2
  *material, name=PEARLITE_31
  *depvar
  *usermaterial, constants=2
  *material, name=FERRITE_62
  *depvar
  *usermaterial, constants=2
  *material, name=PEARLITE_32
  *depvar
  *usermaterial, constants=2
  *material, name=PEARLITE_33
  *depvar
  *usermaterial, constants=2
  *material, name=PEARLITE_34
  *depvar
  *usermaterial, constants=2
  *material, name=PEARLITE_35
  *depvar
  *usermaterial, constants=2
  *material, name=FERRITE_63
  *depvar
  *usermaterial, constants=2
  *material, name=PEARLITE_36
  *depvar
  *usermaterial, constants=2
  *material, name=PEARLITE_37
  *depvar
  *usermaterial, constants=2
  *material, name=PEARLITE_38
  *depvar
  *usermaterial, constants=2
  *material, name=PEARLITE_39
  *depvar
  *usermaterial, constants=2
  *material, name=PEARLITE_40
  *depvar
  *usermaterial, constants=2
  *material, name=FERRITE_64
  *depvar
  *usermaterial, constants=2
  *material, name=FERRITE_65
  *depvar
  *usermaterial, constants=2
  *material, name=PEARLITE_41
  *depvar
  *usermaterial, constants=2
  *material, name=FERRITE_66
  *depvar
  *usermaterial, constants=2
  *material, name=FERRITE_67
  *depvar
  *usermaterial, constants=2
  *material, name=FERRITE_68
  *depvar
  *usermaterial, constants=2
  *material, name=FERRITE_69
  *depvar
  *usermaterial, constants=2
  *material, name=PEARLITE_42
  *depvar
  *usermaterial, constants=2
  *material, name=FERRITE_70
  *depvar
  *usermaterial, constants=2
  *material, name=PEARLITE_43
  *depvar
  *usermaterial, constants=2
  *material, name=PEARLITE_44
  *depvar
  *usermaterial, constants=2
  *material, name=PEARLITE_45
  *depvar
  *usermaterial, constants=2
  *material, name=PEARLITE_46
  *depvar
  *usermaterial, constants=2
  *material, name=PEARLITE_47
  *depvar
  *usermaterial, constants=2
  *material, name=FERRITE_71
  *depvar
  *usermaterial, constants=2
  *material, name=PEARLITE_48
  *depvar
  *usermaterial, constants=2
  *material, name=PEARLITE_49
  *depvar
  *usermaterial, constants=2
  *material, name=FERRITE_72
  *depvar
  *usermaterial, constants=2
  *material, name=PEARLITE_50
  *depvar
  *usermaterial, constants=2
  *material, name=FERRITE_73
  *depvar
  *usermaterial, constants=2
  *material, name=FERRITE_74
  *depvar
  *usermaterial, constants=2
  *material, name=PEARLITE_51
  *depvar
  *usermaterial, constants=2
  *material, name=FERRITE_75
  *depvar
  *usermaterial, constants=2
  *material, name=PEARLITE_52
  *depvar
  *usermaterial, constants=2
  *material, name=PEARLITE_53
  *depvar
  *usermaterial, constants=2
  *material, name=FERRITE_76
  *depvar
  *usermaterial, constants=2
  *material, name=FERRITE_77
  *depvar
  *usermaterial, constants=2
  *material, name=FERRITE_78
  *depvar
  *usermaterial, constants=2
  *material, name=PEARLITE_54
  *depvar
  *usermaterial, constants=2
  *material, name=PEARLITE_55
  *depvar
  *usermaterial, constants=2
  *material, name=PEARLITE_56
  *depvar
  *usermaterial, constants=2
  *material, name=FERRITE_79
  *depvar
  *usermaterial, constants=2
  *material, name=FERRITE_80
  *depvar
  *usermaterial, constants=2
  *material, name=FERRITE_81
  *depvar
  *usermaterial, constants=2
  *solidsection, elset=ASSEMBLY_PART-1-1_SET-1, material=FERRITE_1
  *solidsection, elset=ASSEMBLY_PART-1-1_SET-2, material=PEARLITE_1
  *solidsection, elset=ASSEMBLY_PART-1-1_SET-3, material=FERRITE_2
  *solidsection, elset=ASSEMBLY_PART-1-1_SET-4, material=FERRITE_3
  *solidsection, elset=ASSEMBLY_PART-1-1_SET-5, material=FERRITE_4
  *solidsection, elset=ASSEMBLY_PART-1-1_SET-6, material=FERRITE_5
  *solidsection, elset=ASSEMBLY_PART-1-1_SET-7, material=FERRITE_6
  *solidsection, elset=ASSEMBLY_PART-1-1_SET-8, material=FERRITE_7
  *solidsection, elset=ASSEMBLY_PART-1-1_SET-9, material=FERRITE_8
  *solidsection, elset=ASSEMBLY_PART-1-1_SET-10, material=PEARLITE_2
  *solidsection, elset=ASSEMBLY_PART-1-1_SET-11, material=PEARLITE_3
  *solidsection, elset=ASSEMBLY_PART-1-1_SET-12, material=FERRITE_9
  *solidsection, elset=ASSEMBLY_PART-1-1_SET-13, material=PEARLITE_4
  *solidsection, elset=ASSEMBLY_PART-1-1_SET-14, material=FERRITE_10
  *solidsection, elset=ASSEMBLY_PART-1-1_SET-15, material=FERRITE_11
  *solidsection, elset=ASSEMBLY_PART-1-1_SET-16, material=PEARLITE_5
  *solidsection, elset=ASSEMBLY_PART-1-1_SET-17, material=FERRITE_12
  *solidsection, elset=ASSEMBLY_PART-1-1_SET-18, material=PEARLITE_6
  *solidsection, elset=ASSEMBLY_PART-1-1_SET-19, material=FERRITE_13
  *solidsection, elset=ASSEMBLY_PART-1-1_SET-20, material=PEARLITE_7
  *solidsection, elset=ASSEMBLY_PART-1-1_SET-21, material=PEARLITE_8
  *solidsection, elset=ASSEMBLY_PART-1-1_SET-22, material=FERRITE_14
  *solidsection, elset=ASSEMBLY_PART-1-1_SET-23, material=FERRITE_15
  *solidsection, elset=ASSEMBLY_PART-1-1_SET-24, material=FERRITE_16
  *solidsection, elset=ASSEMBLY_PART-1-1_SET-25, material=FERRITE_17
  *solidsection, elset=ASSEMBLY_PART-1-1_SET-26, material=FERRITE_18
  *solidsection, elset=ASSEMBLY_PART-1-1_SET-27, material=FERRITE_19
  *solidsection, elset=ASSEMBLY_PART-1-1_SET-28, material=FERRITE_20
  *solidsection, elset=ASSEMBLY_PART-1-1_SET-29, material=PEARLITE_9
  *solidsection, elset=ASSEMBLY_PART-1-1_SET-30, material=FERRITE_21
  *solidsection, elset=ASSEMBLY_PART-1-1_SET-31, material=FERRITE_22
  *solidsection, elset=ASSEMBLY_PART-1-1_SET-32, material=FERRITE_23
  *solidsection, elset=ASSEMBLY_PART-1-1_SET-33, material=PEARLITE_10
  *solidsection, elset=ASSEMBLY_PART-1-1_SET-34, material=PEARLITE_11
  *solidsection, elset=ASSEMBLY_PART-1-1_SET-35, material=FERRITE_24
  *solidsection, elset=ASSEMBLY_PART-1-1_SET-36, material=PEARLITE_12
  *solidsection, elset=ASSEMBLY_PART-1-1_SET-37, material=FERRITE_25
  *solidsection, elset=ASSEMBLY_PART-1-1_SET-38, material=FERRITE_26
  *solidsection, elset=ASSEMBLY_PART-1-1_SET-39, material=FERRITE_27
  *solidsection, elset=ASSEMBLY_PART-1-1_SET-40, material=PEARLITE_13
  *solidsection, elset=ASSEMBLY_PART-1-1_SET-41, material=FERRITE_28
  *solidsection, elset=ASSEMBLY_PART-1-1_SET-42, material=FERRITE_29
  *solidsection, elset=ASSEMBLY_PART-1-1_SET-43, material=FERRITE_30
  *solidsection, elset=ASSEMBLY_PART-1-1_SET-44, material=PEARLITE_14
  *solidsection, elset=ASSEMBLY_PART-1-1_SET-45, material=FERRITE_31
  *solidsection, elset=ASSEMBLY_PART-1-1_SET-46, material=PEARLITE_15
  *solidsection, elset=ASSEMBLY_PART-1-1_SET-47, material=FERRITE_32
  *solidsection, elset=ASSEMBLY_PART-1-1_SET-48, material=PEARLITE_16
  *solidsection, elset=ASSEMBLY_PART-1-1_SET-49, material=PEARLITE_17
  *solidsection, elset=ASSEMBLY_PART-1-1_SET-50, material=PEARLITE_18
  *solidsection, elset=ASSEMBLY_PART-1-1_SET-51, material=PEARLITE_19
  *solidsection, elset=ASSEMBLY_PART-1-1_SET-52, material=PEARLITE_20
  *solidsection, elset=ASSEMBLY_PART-1-1_SET-53, material=FERRITE_33
  *solidsection, elset=ASSEMBLY_PART-1-1_SET-54, material=FERRITE_34
  *solidsection, elset=ASSEMBLY_PART-1-1_SET-55, material=PEARLITE_21
  *solidsection, elset=ASSEMBLY_PART-1-1_SET-56, material=FERRITE_35
  *solidsection, elset=ASSEMBLY_PART-1-1_SET-57, material=PEARLITE_22
  *solidsection, elset=ASSEMBLY_PART-1-1_SET-58, material=FERRITE_36
  *solidsection, elset=ASSEMBLY_PART-1-1_SET-59, material=FERRITE_37
  *solidsection, elset=ASSEMBLY_PART-1-1_SET-60, material=FERRITE_38
  *solidsection, elset=ASSEMBLY_PART-1-1_SET-61, material=FERRITE_39
  *solidsection, elset=ASSEMBLY_PART-1-1_SET-62, material=FERRITE_40
  *solidsection, elset=ASSEMBLY_PART-1-1_SET-63, material=FERRITE_41
  *solidsection, elset=ASSEMBLY_PART-1-1_SET-64, material=FERRITE_42
  *solidsection, elset=ASSEMBLY_PART-1-1_SET-65, material=FERRITE_43
  *solidsection, elset=ASSEMBLY_PART-1-1_SET-66, material=FERRITE_44
  *solidsection, elset=ASSEMBLY_PART-1-1_SET-67, material=PEARLITE_23
  *solidsection, elset=ASSEMBLY_PART-1-1_SET-68, material=FERRITE_45
  *solidsection, elset=ASSEMBLY_PART-1-1_SET-69, material=FERRITE_46
  *solidsection, elset=ASSEMBLY_PART-1-1_SET-70, material=FERRITE_47
  *solidsection, elset=ASSEMBLY_PART-1-1_SET-71, material=FERRITE_48
  *solidsection, elset=ASSEMBLY_PART-1-1_SET-72, material=PEARLITE_24
  *solidsection, elset=ASSEMBLY_PART-1-1_SET-73, material=FERRITE_49
  *solidsection, elset=ASSEMBLY_PART-1-1_SET-74, material=FERRITE_50
  *solidsection, elset=ASSEMBLY_PART-1-1_SET-75, material=FERRITE_51
  *solidsection, elset=ASSEMBLY_PART-1-1_SET-76, material=FERRITE_52
  *solidsection, elset=ASSEMBLY_PART-1-1_SET-77, material=FERRITE_53
  *solidsection, elset=ASSEMBLY_PART-1-1_SET-78, material=PEARLITE_25
  *solidsection, elset=ASSEMBLY_PART-1-1_SET-79, material=FERRITE_54
  *solidsection, elset=ASSEMBLY_PART-1-1_SET-80, material=PEARLITE_26
  *solidsection, elset=ASSEMBLY_PART-1-1_SET-81, material=PEARLITE_27
  *solidsection, elset=ASSEMBLY_PART-1-1_SET-82, material=PEARLITE_28
  *solidsection, elset=ASSEMBLY_PART-1-1_SET-83, material=PEARLITE_29
  *solidsection, elset=ASSEMBLY_PART-1-1_SET-84, material=FERRITE_55
  *solidsection, elset=ASSEMBLY_PART-1-1_SET-85, material=PEARLITE_30
  *solidsection, elset=ASSEMBLY_PART-1-1_SET-86, material=FERRITE_56
  *solidsection, elset=ASSEMBLY_PART-1-1_SET-87, material=FERRITE_57
  *solidsection, elset=ASSEMBLY_PART-1-1_SET-88, material=FERRITE_58
  *solidsection, elset=ASSEMBLY_PART-1-1_SET-89, material=FERRITE_59
  *solidsection, elset=ASSEMBLY_PART-1-1_SET-90, material=FERRITE_60
  *solidsection, elset=ASSEMBLY_PART-1-1_SET-91, material=FERRITE_61
  *solidsection, elset=ASSEMBLY_PART-1-1_SET-92, material=PEARLITE_31
  *solidsection, elset=ASSEMBLY_PART-1-1_SET-93, material=FERRITE_62
  *solidsection, elset=ASSEMBLY_PART-1-1_SET-94, material=PEARLITE_32
  *solidsection, elset=ASSEMBLY_PART-1-1_SET-95, material=PEARLITE_33
  *solidsection, elset=ASSEMBLY_PART-1-1_SET-96, material=PEARLITE_34
  *solidsection, elset=ASSEMBLY_PART-1-1_SET-97, material=PEARLITE_35
  *solidsection, elset=ASSEMBLY_PART-1-1_SET-98, material=FERRITE_63
  *solidsection, elset=ASSEMBLY_PART-1-1_SET-99, material=PEARLITE_36
  *solidsection, elset=ASSEMBLY_PART-1-1_SET-100, material=PEARLITE_37
  *solidsection, elset=ASSEMBLY_PART-1-1_SET-101, material=PEARLITE_38
  *solidsection, elset=ASSEMBLY_PART-1-1_SET-102, material=PEARLITE_39
  *solidsection, elset=ASSEMBLY_PART-1-1_SET-103, material=PEARLITE_40
  *solidsection, elset=ASSEMBLY_PART-1-1_SET-104, material=FERRITE_64
  *solidsection, elset=ASSEMBLY_PART-1-1_SET-105, material=FERRITE_65
  *solidsection, elset=ASSEMBLY_PART-1-1_SET-106, material=PEARLITE_41
  *solidsection, elset=ASSEMBLY_PART-1-1_SET-107, material=FERRITE_66
  *solidsection, elset=ASSEMBLY_PART-1-1_SET-108, material=FERRITE_67
  *solidsection, elset=ASSEMBLY_PART-1-1_SET-109, material=FERRITE_68
  *solidsection, elset=ASSEMBLY_PART-1-1_SET-110, material=FERRITE_69
  *solidsection, elset=ASSEMBLY_PART-1-1_SET-111, material=PEARLITE_42
  *solidsection, elset=ASSEMBLY_PART-1-1_SET-112, material=FERRITE_70
  *solidsection, elset=ASSEMBLY_PART-1-1_SET-113, material=PEARLITE_43
  *solidsection, elset=ASSEMBLY_PART-1-1_SET-114, material=PEARLITE_44
  *solidsection, elset=ASSEMBLY_PART-1-1_SET-115, material=PEARLITE_45
  *solidsection, elset=ASSEMBLY_PART-1-1_SET-116, material=PEARLITE_46
  *solidsection, elset=ASSEMBLY_PART-1-1_SET-117, material=PEARLITE_47
  *solidsection, elset=ASSEMBLY_PART-1-1_SET-118, material=FERRITE_71
  *solidsection, elset=ASSEMBLY_PART-1-1_SET-119, material=PEARLITE_48
  *solidsection, elset=ASSEMBLY_PART-1-1_SET-120, material=PEARLITE_49
  *solidsection, elset=ASSEMBLY_PART-1-1_SET-121, material=FERRITE_72
  *solidsection, elset=ASSEMBLY_PART-1-1_SET-122, material=PEARLITE_50
  *solidsection, elset=ASSEMBLY_PART-1-1_SET-123, material=FERRITE_73
  *solidsection, elset=ASSEMBLY_PART-1-1_SET-124, material=FERRITE_74
  *solidsection, elset=ASSEMBLY_PART-1-1_SET-125, material=PEARLITE_51
  *solidsection, elset=ASSEMBLY_PART-1-1_SET-126, material=FERRITE_75
  *solidsection, elset=ASSEMBLY_PART-1-1_SET-127, material=PEARLITE_52
  *solidsection, elset=ASSEMBLY_PART-1-1_SET-128, material=PEARLITE_53
  *solidsection, elset=ASSEMBLY_PART-1-1_SET-129, material=FERRITE_76
  *solidsection, elset=ASSEMBLY_PART-1-1_SET-130, material=FERRITE_77
  *solidsection, elset=ASSEMBLY_PART-1-1_SET-131, material=FERRITE_78
  *solidsection, elset=ASSEMBLY_PART-1-1_SET-132, material=PEARLITE_54
  *solidsection, elset=ASSEMBLY_PART-1-1_SET-133, material=PEARLITE_55
  *solidsection, elset=ASSEMBLY_PART-1-1_SET-134, material=PEARLITE_56
  *solidsection, elset=ASSEMBLY_PART-1-1_SET-135, material=FERRITE_79
  *solidsection, elset=ASSEMBLY_PART-1-1_SET-136, material=FERRITE_80
  *solidsection, elset=ASSEMBLY_PART-1-1_SET-137, material=FERRITE_81
  *solidsection, elset=ASSEMBLY_PART-1-1_SET-1, material=FERRITE_1
  *solidsection, elset=ASSEMBLY_PART-1-1_SET-2, material=PEARLITE_1
  *solidsection, elset=ASSEMBLY_PART-1-1_SET-3, material=FERRITE_2
  *solidsection, elset=ASSEMBLY_PART-1-1_SET-4, material=FERRITE_3
  *solidsection, elset=ASSEMBLY_PART-1-1_SET-5, material=FERRITE_4
  *solidsection, elset=ASSEMBLY_PART-1-1_SET-6, material=FERRITE_5
  *solidsection, elset=ASSEMBLY_PART-1-1_SET-7, material=FERRITE_6
  *solidsection, elset=ASSEMBLY_PART-1-1_SET-8, material=FERRITE_7
  *solidsection, elset=ASSEMBLY_PART-1-1_SET-9, material=FERRITE_8
  *solidsection, elset=ASSEMBLY_PART-1-1_SET-10, material=PEARLITE_2
  *solidsection, elset=ASSEMBLY_PART-1-1_SET-11, material=PEARLITE_3
  *solidsection, elset=ASSEMBLY_PART-1-1_SET-12, material=FERRITE_9
  *solidsection, elset=ASSEMBLY_PART-1-1_SET-13, material=PEARLITE_4
  *solidsection, elset=ASSEMBLY_PART-1-1_SET-14, material=FERRITE_10
  *solidsection, elset=ASSEMBLY_PART-1-1_SET-15, material=FERRITE_11
  *solidsection, elset=ASSEMBLY_PART-1-1_SET-16, material=PEARLITE_5
  *solidsection, elset=ASSEMBLY_PART-1-1_SET-17, material=FERRITE_12
  *solidsection, elset=ASSEMBLY_PART-1-1_SET-18, material=PEARLITE_6
  *solidsection, elset=ASSEMBLY_PART-1-1_SET-19, material=FERRITE_13
  *solidsection, elset=ASSEMBLY_PART-1-1_SET-20, material=PEARLITE_7
  *solidsection, elset=ASSEMBLY_PART-1-1_SET-21, material=PEARLITE_8
  *solidsection, elset=ASSEMBLY_PART-1-1_SET-22, material=FERRITE_14
  *solidsection, elset=ASSEMBLY_PART-1-1_SET-23, material=FERRITE_15
  *solidsection, elset=ASSEMBLY_PART-1-1_SET-24, material=FERRITE_16
  *solidsection, elset=ASSEMBLY_PART-1-1_SET-25, material=FERRITE_17
  *solidsection, elset=ASSEMBLY_PART-1-1_SET-26, material=FERRITE_18
  *solidsection, elset=ASSEMBLY_PART-1-1_SET-27, material=FERRITE_19
  *solidsection, elset=ASSEMBLY_PART-1-1_SET-28, material=FERRITE_20
  *solidsection, elset=ASSEMBLY_PART-1-1_SET-29, material=PEARLITE_9
  *solidsection, elset=ASSEMBLY_PART-1-1_SET-30, material=FERRITE_21
  *solidsection, elset=ASSEMBLY_PART-1-1_SET-31, material=FERRITE_22
  *solidsection, elset=ASSEMBLY_PART-1-1_SET-32, material=FERRITE_23
  *solidsection, elset=ASSEMBLY_PART-1-1_SET-33, material=PEARLITE_10
  *solidsection, elset=ASSEMBLY_PART-1-1_SET-34, material=PEARLITE_11
  *solidsection, elset=ASSEMBLY_PART-1-1_SET-35, material=FERRITE_24
  *solidsection, elset=ASSEMBLY_PART-1-1_SET-36, material=PEARLITE_12
  *solidsection, elset=ASSEMBLY_PART-1-1_SET-37, material=FERRITE_25
  *solidsection, elset=ASSEMBLY_PART-1-1_SET-38, material=FERRITE_26
  *solidsection, elset=ASSEMBLY_PART-1-1_SET-39, material=FERRITE_27
  *solidsection, elset=ASSEMBLY_PART-1-1_SET-40, material=PEARLITE_13
  *solidsection, elset=ASSEMBLY_PART-1-1_SET-41, material=FERRITE_28
  *solidsection, elset=ASSEMBLY_PART-1-1_SET-42, material=FERRITE_29
  *solidsection, elset=ASSEMBLY_PART-1-1_SET-43, material=FERRITE_30
  *solidsection, elset=ASSEMBLY_PART-1-1_SET-44, material=PEARLITE_14
  *solidsection, elset=ASSEMBLY_PART-1-1_SET-45, material=FERRITE_31
  *solidsection, elset=ASSEMBLY_PART-1-1_SET-46, material=PEARLITE_15
  *solidsection, elset=ASSEMBLY_PART-1-1_SET-47, material=FERRITE_32
  *solidsection, elset=ASSEMBLY_PART-1-1_SET-48, material=PEARLITE_16
  *solidsection, elset=ASSEMBLY_PART-1-1_SET-49, material=PEARLITE_17
  *solidsection, elset=ASSEMBLY_PART-1-1_SET-50, material=PEARLITE_18
  *solidsection, elset=ASSEMBLY_PART-1-1_SET-51, material=PEARLITE_19
  *solidsection, elset=ASSEMBLY_PART-1-1_SET-52, material=PEARLITE_20
  *solidsection, elset=ASSEMBLY_PART-1-1_SET-53, material=FERRITE_33
  *solidsection, elset=ASSEMBLY_PART-1-1_SET-54, material=FERRITE_34
  *solidsection, elset=ASSEMBLY_PART-1-1_SET-55, material=PEARLITE_21
  *solidsection, elset=ASSEMBLY_PART-1-1_SET-56, material=FERRITE_35
  *solidsection, elset=ASSEMBLY_PART-1-1_SET-57, material=PEARLITE_22
  *solidsection, elset=ASSEMBLY_PART-1-1_SET-58, material=FERRITE_36
  *solidsection, elset=ASSEMBLY_PART-1-1_SET-59, material=FERRITE_37
  *solidsection, elset=ASSEMBLY_PART-1-1_SET-60, material=FERRITE_38
  *solidsection, elset=ASSEMBLY_PART-1-1_SET-61, material=FERRITE_39
  *solidsection, elset=ASSEMBLY_PART-1-1_SET-62, material=FERRITE_40
  *solidsection, elset=ASSEMBLY_PART-1-1_SET-63, material=FERRITE_41
  *solidsection, elset=ASSEMBLY_PART-1-1_SET-64, material=FERRITE_42
  *solidsection, elset=ASSEMBLY_PART-1-1_SET-65, material=FERRITE_43
  *solidsection, elset=ASSEMBLY_PART-1-1_SET-66, material=FERRITE_44
  *solidsection, elset=ASSEMBLY_PART-1-1_SET-67, material=PEARLITE_23
  *solidsection, elset=ASSEMBLY_PART-1-1_SET-68, material=FERRITE_45
  *solidsection, elset=ASSEMBLY_PART-1-1_SET-69, material=FERRITE_46
  *solidsection, elset=ASSEMBLY_PART-1-1_SET-70, material=FERRITE_47
  *solidsection, elset=ASSEMBLY_PART-1-1_SET-71, material=FERRITE_48
  *solidsection, elset=ASSEMBLY_PART-1-1_SET-72, material=PEARLITE_24
  *solidsection, elset=ASSEMBLY_PART-1-1_SET-73, material=FERRITE_49
  *solidsection, elset=ASSEMBLY_PART-1-1_SET-74, material=FERRITE_50
  *solidsection, elset=ASSEMBLY_PART-1-1_SET-75, material=FERRITE_51
  *solidsection, elset=ASSEMBLY_PART-1-1_SET-76, material=FERRITE_52
  *solidsection, elset=ASSEMBLY_PART-1-1_SET-77, material=FERRITE_53
  *solidsection, elset=ASSEMBLY_PART-1-1_SET-78, material=PEARLITE_25
  *solidsection, elset=ASSEMBLY_PART-1-1_SET-79, material=FERRITE_54
  *solidsection, elset=ASSEMBLY_PART-1-1_SET-80, material=PEARLITE_26
  *solidsection, elset=ASSEMBLY_PART-1-1_SET-81, material=PEARLITE_27
  *solidsection, elset=ASSEMBLY_PART-1-1_SET-82, material=PEARLITE_28
  *solidsection, elset=ASSEMBLY_PART-1-1_SET-83, material=PEARLITE_29
  *solidsection, elset=ASSEMBLY_PART-1-1_SET-84, material=FERRITE_55
  *solidsection, elset=ASSEMBLY_PART-1-1_SET-85, material=PEARLITE_30
  *solidsection, elset=ASSEMBLY_PART-1-1_SET-86, material=FERRITE_56
  *solidsection, elset=ASSEMBLY_PART-1-1_SET-87, material=FERRITE_57
  *solidsection, elset=ASSEMBLY_PART-1-1_SET-88, material=FERRITE_58
  *solidsection, elset=ASSEMBLY_PART-1-1_SET-89, material=FERRITE_59
  *solidsection, elset=ASSEMBLY_PART-1-1_SET-90, material=FERRITE_60
  *solidsection, elset=ASSEMBLY_PART-1-1_SET-91, material=FERRITE_61
  *solidsection, elset=ASSEMBLY_PART-1-1_SET-92, material=PEARLITE_31
  *solidsection, elset=ASSEMBLY_PART-1-1_SET-93, material=FERRITE_62
  *solidsection, elset=ASSEMBLY_PART-1-1_SET-94, material=PEARLITE_32
  *solidsection, elset=ASSEMBLY_PART-1-1_SET-95, material=PEARLITE_33
  *solidsection, elset=ASSEMBLY_PART-1-1_SET-96, material=PEARLITE_34
  *solidsection, elset=ASSEMBLY_PART-1-1_SET-97, material=PEARLITE_35
  *solidsection, elset=ASSEMBLY_PART-1-1_SET-98, material=FERRITE_63
  *solidsection, elset=ASSEMBLY_PART-1-1_SET-99, material=PEARLITE_36
  *solidsection, elset=ASSEMBLY_PART-1-1_SET-100, material=PEARLITE_37
  *solidsection, elset=ASSEMBLY_PART-1-1_SET-101, material=PEARLITE_38
  *solidsection, elset=ASSEMBLY_PART-1-1_SET-102, material=PEARLITE_39
  *solidsection, elset=ASSEMBLY_PART-1-1_SET-103, material=PEARLITE_40
  *solidsection, elset=ASSEMBLY_PART-1-1_SET-104, material=FERRITE_64
  *solidsection, elset=ASSEMBLY_PART-1-1_SET-105, material=FERRITE_65
  *solidsection, elset=ASSEMBLY_PART-1-1_SET-106, material=PEARLITE_41
  *solidsection, elset=ASSEMBLY_PART-1-1_SET-107, material=FERRITE_66
  *solidsection, elset=ASSEMBLY_PART-1-1_SET-108, material=FERRITE_67
  *solidsection, elset=ASSEMBLY_PART-1-1_SET-109, material=FERRITE_68
  *solidsection, elset=ASSEMBLY_PART-1-1_SET-110, material=FERRITE_69
  *solidsection, elset=ASSEMBLY_PART-1-1_SET-111, material=PEARLITE_42
  *solidsection, elset=ASSEMBLY_PART-1-1_SET-112, material=FERRITE_70
  *solidsection, elset=ASSEMBLY_PART-1-1_SET-113, material=PEARLITE_43
  *solidsection, elset=ASSEMBLY_PART-1-1_SET-114, material=PEARLITE_44
  *solidsection, elset=ASSEMBLY_PART-1-1_SET-115, material=PEARLITE_45
  *solidsection, elset=ASSEMBLY_PART-1-1_SET-116, material=PEARLITE_46
  *solidsection, elset=ASSEMBLY_PART-1-1_SET-117, material=PEARLITE_47
  *solidsection, elset=ASSEMBLY_PART-1-1_SET-118, material=FERRITE_71
  *solidsection, elset=ASSEMBLY_PART-1-1_SET-119, material=PEARLITE_48
  *solidsection, elset=ASSEMBLY_PART-1-1_SET-120, material=PEARLITE_49
  *solidsection, elset=ASSEMBLY_PART-1-1_SET-121, material=FERRITE_72
  *solidsection, elset=ASSEMBLY_PART-1-1_SET-122, material=PEARLITE_50
  *solidsection, elset=ASSEMBLY_PART-1-1_SET-123, material=FERRITE_73
  *solidsection, elset=ASSEMBLY_PART-1-1_SET-124, material=FERRITE_74
  *solidsection, elset=ASSEMBLY_PART-1-1_SET-125, material=PEARLITE_51
  *solidsection, elset=ASSEMBLY_PART-1-1_SET-126, material=FERRITE_75
  *solidsection, elset=ASSEMBLY_PART-1-1_SET-127, material=PEARLITE_52
  *solidsection, elset=ASSEMBLY_PART-1-1_SET-128, material=PEARLITE_53
  *solidsection, elset=ASSEMBLY_PART-1-1_SET-129, material=FERRITE_76
  *solidsection, elset=ASSEMBLY_PART-1-1_SET-130, material=FERRITE_77
  *solidsection, elset=ASSEMBLY_PART-1-1_SET-131, material=FERRITE_78
  *solidsection, elset=ASSEMBLY_PART-1-1_SET-132, material=PEARLITE_54
  *solidsection, elset=ASSEMBLY_PART-1-1_SET-133, material=PEARLITE_55
  *solidsection, elset=ASSEMBLY_PART-1-1_SET-134, material=PEARLITE_56
  *solidsection, elset=ASSEMBLY_PART-1-1_SET-135, material=FERRITE_79
  *solidsection, elset=ASSEMBLY_PART-1-1_SET-136, material=FERRITE_80
  *solidsection, elset=ASSEMBLY_PART-1-1_SET-137, material=FERRITE_81
  *boundary
  *boundary
  *boundary
  *boundary
  *boundary, amplitude=AMP-1
  *boundary
  *boundary
  *boundary
  *boundary
  *boundary, amplitude=AMP-1
  *equation
  *equation
  *equation
  *equation
  *equation
  *equation
  *equation
  *equation
  *equation
  *equation
  *equation
  *equation
  *equation
  *equation
  *equation
  *equation
  *equation
  *equation
  *equation
  *equation
  *equation
  *equation
  *equation
  *equation
  *equation
  *equation
  *equation
  *equation
  *equation
  *equation
  *equation
  *equation
  *equation
  *equation
  *equation
  *equation
  *equation
  *equation
  *equation
  *equation
  *equation
  *equation
  *equation
  *equation
  *equation
  *equation
  *equation
  *equation
  *equation
  *equation

 ***NOTE: DUE TO EXCESSIVE REPORTING, THE ECHO OF THE *MPC and *EQUATION 
          OPTIONS IS BEING SUPPRESSED.
  *output, field, timepoints=TIMEPOINTS-1
  *elementoutput, directions=YES
  
     MODEL DECOMPOSITION USED FOR PARALLEL ELEMENT OPERATIONS:
  
        DOMAIN          ELEMENTS          NODES   
       --------        ----------        -------  
           1                  84            215
           2                  84            227
           3                  82            216
           4                  84            250
           5                  82            196
           6                  84            190
           7                  82            228
           8                  83            225
           9                  82            288
          10                  82            318
          11                  84            288
          12                  84            224
          13                  84            204
          14                  82            245
          15                  84            251
          16                  84            241
  
  *output, field, timepoints=TIMEPOINTS-1
  *elementoutput, directions=YES
  *output, field, timepoints=TIMEPOINTS-1
  *elementoutput, directions=YES
  *timepoints, name=TIMEPOINTS-1, generate
  *Step, name=Step-1, nlgeom=YES, inc=10000000, solver=ITERATIVE
  *output, field, timepoints=TIMEPOINTS-1
  *Step, name=Step-1, nlgeom=YES, inc=10000000, solver=ITERATIVE
  *Step, name=Step-1, nlgeom=YES, inc=10000000, solver=ITERATIVE
  *static
  *controls, reset
  *controls, parameters=TIMEINCREMENTATION
  *controls, parameters=LINESEARCH
  *solvercontrols
  *boundary, amplitude=AMP-1
  *output, field, timepoints=TIMEPOINTS-1
  *nodeoutput
  *elementoutput, directions=YES
  *endstep

 ***WARNING: OUTPUT AT EXACT, PREDEFINED TIME POINTS WAS REQUESTED IN THIS 
             STEP. IN ORDER TO WRITE OUTPUT AT EXACT TIME POINTS SPECIFIED, 
             Abaqus MIGHT USE TIME INCREMENTS SMALLER THAN THE MINIMUM TIME 
             INCREMENT ALLOWED IN THE STEP. IN ADDITION, THE NUMBER OF 
             INCREMENTS REQUIRED TO COMPLETE THE STEP WILL IN GENERAL INCREASE.
  *boundary
  *boundary
  *boundary
  *boundary
  *Step, name=Step-1, nlgeom=YES, inc=10000000, solver=ITERATIVE
  *static
  *boundary, amplitude=AMP-1
  *endstep



                            P R O B L E M   S I Z E


          NUMBER OF ELEMENTS IS                                  1331
          NUMBER OF NODES IS                                     1728
          NUMBER OF NODES DEFINED BY THE USER                    1728
          TOTAL NUMBER OF VARIABLES IN THE MODEL                 5184
          (DEGREES OF FREEDOM PLUS MAX NO. OF ANY LAGRANGE MULTIPLIER
           VARIABLES. INCLUDE *PRINT,SOLVE=YES TO GET THE ACTUAL NUMBER.)



                              END OF USER INPUT PROCESSING



     JOB TIME SUMMARY
       USER TIME (SEC)      =      1.5    
       SYSTEM TIME (SEC)    =     9.00E-02
       TOTAL CPU TIME (SEC) =      1.6    
       WALLCLOCK TIME (SEC) =            3
                                                                   
                                                                   
     --------------------------------------------------------------
     --------------------Crystal Plasticity Code-------------------
     -------------------------MMM/ICAMS/RUB------------------------
     --------------------------------------------------------------
     --------------------------------------------------------------
       Version: 17.09.2020
       Infos: Gradient calculation not fully implemented yet.
       Number of used CPUs (MPI only):           16
                                                                   
       <Start>                                                     
                                                                   
 Warning: Multiple CPUs only supported with iterative solver!
 /rwthfs/rz/cluster/home/rwth1393/GA-Calibration/simulation_6625                
                                                                                
                                                                                
                    
1

   Abaqus 2022.HF6                                  Date 13-Sep-2023   Time 16:04:17
   For use by RWTH AACHEN UNIVERSITY under license from Dassault Systemes or its subsidiary.

                                                                                               STEP    1  INCREMENT    1
                                                                                          TIME COMPLETED IN THIS STEP   0.00    


                        S T E P       1     S T A T I C   A N A L Y S I S


                                                                                          

     AUTOMATIC TIME CONTROL WITH -
          A SUGGESTED INITIAL TIME INCREMENT OF                0.100    
          AND A TOTAL TIME PERIOD OF                            55.0    
          THE MINIMUM TIME INCREMENT ALLOWED IS                5.000-150
          THE MAXIMUM TIME INCREMENT ALLOWED IS                 55.0    

     LINEAR EQUATION SOLVER TYPE         ITERATIVE
     RELATIVE TOLERANCE OF CONVERGENCE   1.000E-05
     MAXIMUM NUMBER OF ITERATIONS        200

          LARGE DISPLACEMENT THEORY WILL BE USED
   1 / Increment duration:   0.100000s / Total time:     0.0000s
   1 / Increment duration:   0.100000s / Total time:     0.0000s
  
                   M E M O R Y   E S T I M A T E
  
 PROCESS         MINIMUM MEMORY        MEMORY TO
                    REQUIRED          MINIMIZE I/O
                      (MB)                (MB)
  
     1                  19                 23
     2                  19                 22
     3                  19                 22
     4                  19                 20
     5                  19                 22
     6                  19                 21
     7                  19                 21
     8                  19                 20
     9                  19                 22
    10                  19                 21
    11                  19                 21
    12                  19                 20
    13                  19                 21
    14                  19                 20
    15                  19                 20
    16                  19                 19
  
 NOTE:
      (1) SINCE ABAQUS DOES NOT PRE-ALLOCATE MEMORY AND ONLY ALLOCATES MEMORY AS NEEDED DURING THE ANALYSIS,
          THE MEMORY REQUIREMENT PRINTED HERE CAN ONLY BE VIEWED AS A GENERAL GUIDELINE BASED ON THE BEST
          KNOWLEDGE AVAILABLE AT THE BEGINNING OF A STEP BEFORE THE SOLUTION PROCESS HAS BEGUN.
      (2) THE ESTIMATE IS NORMALLY UPDATED AT THE BEGINNING OF EVERY STEP. IT IS THE MAXIMUM VALUE OF THE
          ESTIMATE FROM THE CURRENT STEP TO THE LAST STEP OF THE ANALYSIS, WITH UNSYMMETRIC SOLUTION TAKEN
          INTO ACCOUNT IF APPLICABLE. 
      (3) SINCE THE ESTIMATE IS BASED ON THE ACTIVE DEGREES OF FREEDOM IN THE FIRST ITERATION OF THE 
          CURRENT STEP, THE MEMORY ESTIMATE MIGHT BE SIGNIFICANTLY DIFFERENT THAN ACTUAL USAGE FOR 
          PROBLEMS WITH SUBSTANTIAL CHANGES IN ACTIVE DEGREES OF FREEDOM BETWEEN STEPS (OR EVEN WITHIN
          THE SAME STEP). EXAMPLES ARE: PROBLEMS WITH SIGNIFICANT CONTACT CHANGES, PROBLEMS WITH MODEL
          CHANGE, PROBLEMS WITH BOTH STATIC STEP AND STEADY STATE DYNAMIC PROCEDURES WHERE ACOUSTIC 
          ELEMENTS WILL ONLY BE ACTIVATED IN THE STEADY STATE DYNAMIC STEPS.
      (4) FOR MULTI-PROCESS EXECUTION, THE ESTIMATED VALUE OF FLOATING POINT OPERATIONS FOR EACH PROCESS
          IS BASED ON AN INITIAL SCHEDULING OF OPERATIONS AND MIGHT NOT REFLECT THE ACTUAL FLOATING 
          POINT OPERATIONS COMPLETED ON EACH PROCESS. OPERATIONS ARE DYNAMICALLY BALANCED DURING EXECUTION, 
          SO THE ACTUAL BALANCE OF OPERATIONS BETWEEN PROCESSES IS EXPECTED TO BE BETTER THAN THE ESTIMATE
          PRINTED HERE.
      (5) THE UPPER LIMIT OF MEMORY THAT CAN BE ALLOCATED BY ABAQUS WILL IN GENERAL DEPEND ON THE VALUE OF
          THE "MEMORY" PARAMETER AND THE AMOUNT OF PHYSICAL MEMORY AVAILABLE ON THE MACHINE. PLEASE SEE
          THE "ABAQUS ANALYSIS USER'S MANUAL" FOR MORE DETAILS. THE ACTUAL USAGE OF MEMORY AND OF DISK
          SPACE FOR SCRATCH DATA WILL DEPEND ON THIS UPPER LIMIT AS WELL AS THE MEMORY REQUIRED TO MINIMIZE
          I/O. IF THE MEMORY UPPER LIMIT IS GREATER THAN THE MEMORY REQUIRED TO MINIMIZE I/O, THEN THE ACTUAL
          MEMORY USAGE WILL BE CLOSE TO THE ESTIMATED "MEMORY TO MINIMIZE I/O" VALUE, AND THE SCRATCH DISK
          USAGE WILL BE CLOSE-TO-ZERO; OTHERWISE, THE ACTUAL MEMORY USED WILL BE CLOSE TO THE PREVIOUSLY
          MENTIONED MEMORY LIMIT, AND THE SCRATCH DISK USAGE WILL BE ROUGHLY PROPORTIONAL TO THE DIFFERENCE
          BETWEEN THE ESTIMATED "MEMORY TO MINIMIZE I/O" AND THE MEMORY UPPER LIMIT. HOWEVER ACCURATE
          ESTIMATE OF THE SCRATCH DISK SPACE IS NOT POSSIBLE.
      (6) USING "*RESTART, WRITE" CAN GENERATE A LARGE AMOUNT OF DATA WRITTEN IN THE WORK DIRECTORY.
   2 / Increment duration:   0.100000s / Total time:     0.1000s
   3 / Increment duration:   0.100000s / Total time:     0.2000s
   4 / Increment duration:   0.100000s / Total time:     0.3000s
   5 / Increment duration:   0.100000s / Total time:     0.4000s
   6 / Increment duration:   0.100000s / Total time:     0.5000s
   7 / Increment duration:   0.100000s / Total time:     0.6000s
   8 / Increment duration:   0.100000s / Total time:     0.7000s
   9 / Increment duration:   0.100000s / Total time:     0.8000s
  10 / Increment duration:   0.100000s / Total time:     0.9000s
  11 / Increment duration:   0.100000s / Total time:     1.0000s
  12 / Increment duration:   0.100000s / Total time:     1.1000s
  13 / Increment duration:   0.100000s / Total time:     1.2000s
Warning: Abnormal IVB magnitude at EL   761 / GP  1
Warning: Abnormal dgmdt magnitude at EL   770 / GP  4
Warning: Abnormal dgmdt magnitude at EL   770 / GP  7
  13 / Increment duration:   0.050000s / Total time:     1.2000s
  14 / Increment duration:   0.050000s / Total time:     1.2500s
  15 / Increment duration:   0.100000s / Total time:     1.3000s
  16 / Increment duration:   0.100000s / Total time:     1.4000s
Warning: Abnormal IVB magnitude at EL   642 / GP  6
Warning: Abnormal IVB magnitude at EL   642 / GP  8
Warning: Abnormal IVB magnitude at EL   643 / GP  8
Warning: Abnormal dgmdt magnitude at EL   651 / GP  4
Warning: Abnormal IVB magnitude at EL   662 / GP  8
Warning: Abnormal IVB magnitude at EL   783 / GP  8
Warning: Abnormal IVB magnitude at EL   893 / GP  7
  16 / Increment duration:   0.050000s / Total time:     1.4000s
  17 / Increment duration:   0.050000s / Total time:     1.4500s
  18 / Increment duration:   0.075000s / Total time:     1.5000s
  19 / Increment duration:   0.025000s / Total time:     1.5750s
  20 / Increment duration:   0.100000s / Total time:     1.6000s
Warning: Abnormal IVB magnitude at EL   643 / GP  1
Warning: Abnormal dgmdt magnitude at EL   762 / GP  3
  20 / Increment duration:   0.050000s / Total time:     1.6000s
  21 / Increment duration:   0.050000s / Total time:     1.6500s
  22 / Increment duration:   0.075000s / Total time:     1.7000s
  23 / Increment duration:   0.025000s / Total time:     1.7750s
  24 / Increment duration:   0.100000s / Total time:     1.8000s
  25 / Increment duration:   0.100000s / Total time:     1.9000s
  26 / Increment duration:   0.100000s / Total time:     2.0000s
  27 / Increment duration:   0.100000s / Total time:     2.1000s
  28 / Increment duration:   0.100000s / Total time:     2.2000s
  29 / Increment duration:   0.100000s / Total time:     2.3000s
  30 / Increment duration:   0.100000s / Total time:     2.4000s
  31 / Increment duration:   0.100000s / Total time:     2.5000s
  32 / Increment duration:   0.100000s / Total time:     2.6000s
  33 / Increment duration:   0.100000s / Total time:     2.7000s
  34 / Increment duration:   0.100000s / Total time:     2.8000s
  35 / Increment duration:   0.100000s / Total time:     2.9000s
  36 / Increment duration:   0.100000s / Total time:     3.0000s
  37 / Increment duration:   0.100000s / Total time:     3.1000s
  38 / Increment duration:   0.100000s / Total time:     3.2000s
  39 / Increment duration:   0.100000s / Total time:     3.3000s
  40 / Increment duration:   0.100000s / Total time:     3.4000s
  41 / Increment duration:   0.100000s / Total time:     3.5000s
  42 / Increment duration:   0.100000s / Total time:     3.6000s
  43 / Increment duration:   0.100000s / Total time:     3.7000s
  44 / Increment duration:   0.100000s / Total time:     3.8000s
  45 / Increment duration:   0.100000s / Total time:     3.9000s
  46 / Increment duration:   0.100000s / Total time:     4.0000s
  47 / Increment duration:   0.100000s / Total time:     4.1000s
  48 / Increment duration:   0.100000s / Total time:     4.2000s
  49 / Increment duration:   0.100000s / Total time:     4.3000s
  50 / Increment duration:   0.100000s / Total time:     4.4000s
  51 / Increment duration:   0.100000s / Total time:     4.5000s
  52 / Increment duration:   0.100000s / Total time:     4.6000s
  53 / Increment duration:   0.100000s / Total time:     4.7000s
  54 / Increment duration:   0.100000s / Total time:     4.8000s
  55 / Increment duration:   0.100000s / Total time:     4.9000s
  56 / Increment duration:   0.168750s / Total time:     5.0000s
Warning: dGv1_dpk2i non-invertible at EL   522 / GP  7
Warning: Abnormal IVB magnitude at EL   641 / GP  1
Warning: Abnormal dgmdt magnitude at EL   644 / GP  3
Warning: Abnormal divbdt magnitude at EL   644 / GP  5
Warning: Abnormal dgmdt magnitude at EL   644 / GP  7
Warning: Abnormal IVB magnitude at EL   651 / GP  2
Warning: Abnormal IVB magnitude at EL   651 / GP  6
Warning: Abnormal IVB magnitude at EL   663 / GP  7
Warning: Abnormal IVB magnitude at EL   728 / GP  1
Warning: Abnormal IVB magnitude at EL   762 / GP  7
Warning: Abnormal dgmdt magnitude at EL   764 / GP  6
Warning: Abnormal dgmdt magnitude at EL   774 / GP  2
Warning: Abnormal dgmdt magnitude at EL   775 / GP  2
Warning: Abnormal IVB magnitude at EL   785 / GP  3
Warning: Abnormal dgmdt magnitude at EL   893 / GP  5
  56 / Increment duration:   0.084375s / Total time:     5.0000s
Warning: Abnormal dgmdt magnitude at EL   522 / GP  3
Warning: Abnormal IVB magnitude at EL   531 / GP  5
Warning: Abnormal IVB magnitude at EL   644 / GP  3
Warning: Abnormal IVB magnitude at EL   652 / GP  5
Warning: Abnormal divbdt magnitude at EL   904 / GP  8
  56 / Increment duration:   0.042188s / Total time:     5.0000s
  56 / Increment duration:   0.021094s / Total time:     5.0000s
  57 / Increment duration:   0.031641s / Total time:     5.0211s
  58 / Increment duration:   0.047461s / Total time:     5.0527s
  59 / Increment duration:   0.071191s / Total time:     5.1002s
  60 / Increment duration:   0.106787s / Total time:     5.1714s
  61 / Increment duration:   0.160181s / Total time:     5.2782s
  62 / Increment duration:   0.240271s / Total time:     5.4384s
  63 / Increment duration:   0.360406s / Total time:     5.6786s
  63 / Increment duration:   0.180203s / Total time:     5.6786s
  64 / Increment duration:   0.270305s / Total time:     5.8588s
  65 / Increment duration:   0.405457s / Total time:     6.1291s
  66 / Increment duration:   0.608186s / Total time:     6.5346s
  67 / Increment duration:   0.912279s / Total time:     7.1428s
  68 / Increment duration:   1.368418s / Total time:     8.0551s
Warning: Abnormal IVB magnitude at EL   496 / GP  1
Warning: Abnormal IVB magnitude at EL   496 / GP  3
Warning: Abnormal IVB magnitude at EL   496 / GP  4
Warning: Abnormal IVB magnitude at EL   496 / GP  5
Warning: Abnormal IVB magnitude at EL   496 / GP  7
Warning: Abnormal IVB magnitude at EL   496 / GP  8
Warning: dGv1_dpk2i non-invertible at EL   507 / GP  3
Warning: Abnormal IVB magnitude at EL   507 / GP  5
Warning: Abnormal IVB magnitude at EL   507 / GP  6
[...]
Warning: dGv1_dpk2i non-invertible at EL   892 / GP  6
Warning: Abnormal IVB magnitude at EL   893 / GP  1
Warning: Abnormal IVB magnitude at EL   893 / GP  5
Warning: Abnormal IVB magnitude at EL   893 / GP  6
Warning: Abnormal dgmdt magnitude at EL   496 / GP  1
Warning: Abnormal dgmdt magnitude at EL   496 / GP  2
Warning: Abnormal dgmdt magnitude at EL   496 / GP  3
Warning: Abnormal dgmdt magnitude at EL   496 / GP  4
Warning: Abnormal IVB magnitude at EL   496 / GP  7
Warning: Abnormal IVB magnitude at EL   496 / GP  8
Warning: Abnormal IVB magnitude at EL   507 / GP  5
Warning: Abnormal IVB magnitude at EL   507 / GP  6
Warning: Abnormal IVB magnitude at EL   519 / GP  5
Warning: Abnormal IVB magnitude at EL   519 / GP  7
Warning: dGv1_dpk2i non-invertible at EL   519 / GP  8
Warning: Abnormal dgmdt magnitude at EL   521 / GP  1
Warning: Abnormal dgmdt magnitude at EL   521 / GP  2
Warning: Abnormal dgmdt magnitude at EL   521 / GP  3
Warning: Abnormal dgmdt magnitude at EL   521 / GP  4
Warning: Abnormal dgmdt magnitude at EL   521 / GP  5
Warning: Abnormal dgmdt magnitude at EL   521 / GP  6
Warning: Abnormal dgmdt magnitude at EL   521 / GP  7
Warning: Abnormal dgmdt magnitude at EL   521 / GP  8
Warning: Abnormal dgmdt magnitude at EL   606 / GP  1
Warning: Abnormal dgmdt magnitude at EL   606 / GP  2
Warning: Abnormal dgmdt magnitude at EL   606 / GP  3
Warning: Abnormal dgmdt magnitude at EL   606 / GP  4
Warning: Abnormal dgmdt magnitude at EL   606 / GP  5
Warning: Abnormal dgmdt magnitude at EL   606 / GP  6
Warning: Abnormal dgmdt magnitude at EL   606 / GP  7
Warning: Abnormal dgmdt magnitude at EL   606 / GP  8
Warning: dGv1_dpk2i non-invertible at EL   607 / GP  1
Warning: dGv1_dpk2i non-invertible at EL   607 / GP  2
Warning: Abnormal IVB magnitude at EL   607 / GP  3
Warning: Abnormal IVB magnitude at EL   607 / GP  4
Warning: Abnormal divbdt magnitude at EL   607 / GP  5
Warning: Abnormal IVB magnitude at EL   607 / GP  6
Warning: dGv1_dpk2i non-invertible at EL   607 / GP  7
Warning: Abnormal IVB magnitude at EL   607 / GP  8
Warning: Abnormal IVB magnitude at EL   618 / GP  1
Warning: Abnormal IVB magnitude at EL   618 / GP  2
Warning: Abnormal IVB magnitude at EL   618 / GP  3
Warning: Abnormal IVB magnitude at EL   618 / GP  4
Warning: Abnormal IVB magnitude at EL   629 / GP  7
Warning: dGv1_dpk2i non-invertible at EL   640 / GP  1
Warning: dGv1_dpk2i non-invertible at EL   640 / GP  2
Warning: dGv1_dpk2i non-invertible at EL   640 / GP  3
Warning: Abnormal divbdt magnitude at EL   640 / GP  4
Warning: Abnormal IVB magnitude at EL   640 / GP  5
Warning: dGv1_dpk2i non-invertible at EL   640 / GP  6
Warning: Abnormal IVB magnitude at EL   640 / GP  7
Warning: dGv1_dpk2i non-invertible at EL   640 / GP  8
Warning: Abnormal IVB magnitude at EL   651 / GP  2
Warning: Abnormal dgmdt magnitude at EL   727 / GP  1
Warning: Abnormal dgmdt magnitude at EL   727 / GP  2
Warning: Abnormal dgmdt magnitude at EL   727 / GP  3
Warning: Abnormal dgmdt magnitude at EL   727 / GP  4
Warning: Abnormal dgmdt magnitude at EL   727 / GP  5
Warning: Abnormal dgmdt magnitude at EL   727 / GP  6
Warning: Abnormal dgmdt magnitude at EL   727 / GP  7
Warning: Abnormal dgmdt magnitude at EL   727 / GP  8
Warning: Abnormal dgmdt magnitude at EL   728 / GP  1
Warning: Abnormal dgmdt magnitude at EL   728 / GP  2
Warning: Abnormal dgmdt magnitude at EL   728 / GP  3
Warning: Abnormal dgmdt magnitude at EL   728 / GP  4
Warning: Abnormal dgmdt magnitude at EL   728 / GP  5
Warning: Abnormal dgmdt magnitude at EL   728 / GP  6
Warning: Abnormal dgmdt magnitude at EL   728 / GP  7
Warning: Abnormal dgmdt magnitude at EL   728 / GP  8
Warning: Abnormal IVB magnitude at EL   729 / GP  1
Warning: Abnormal IVB magnitude at EL   729 / GP  5
Warning: Abnormal IVB magnitude at EL   729 / GP  7
Warning: Abnormal dgmdt magnitude at EL   760 / GP  1
Warning: Abnormal dgmdt magnitude at EL   760 / GP  2
Warning: Abnormal dgmdt magnitude at EL   760 / GP  3
Warning: Abnormal dgmdt magnitude at EL   760 / GP  4
Warning: Abnormal dgmdt magnitude at EL   760 / GP  5
Warning: Abnormal IVB magnitude at EL   760 / GP  6
Warning: dGv1_dpk2i non-invertible at EL   760 / GP  7
Warning: Abnormal IVB magnitude at EL   760 / GP  8
Warning: Abnormal dgmdt magnitude at EL   761 / GP  1
Warning: Abnormal dgmdt magnitude at EL   761 / GP  2
Warning: Abnormal dgmdt magnitude at EL   761 / GP  3
Warning: Abnormal dgmdt magnitude at EL   761 / GP  4
Warning: Abnormal divbdt magnitude at EL   761 / GP  5
Warning: Abnormal dgmdt magnitude at EL   761 / GP  6
Warning: Abnormal IVB magnitude at EL   761 / GP  7
Warning: Abnormal dgmdt magnitude at EL   761 / GP  8
Warning: Abnormal dgmdt magnitude at EL   770 / GP  1
Warning: Abnormal dgmdt magnitude at EL   770 / GP  2
Warning: Abnormal dgmdt magnitude at EL   770 / GP  3
Warning: Abnormal dgmdt magnitude at EL   770 / GP  4
Warning: Abnormal dgmdt magnitude at EL   770 / GP  5
Warning: Abnormal dgmdt magnitude at EL   770 / GP  6
Warning: Abnormal dgmdt magnitude at EL   770 / GP  7
Warning: Abnormal dgmdt magnitude at EL   770 / GP  8
Warning: Abnormal IVB magnitude at EL   771 / GP  8
Warning: Abnormal IVB magnitude at EL   782 / GP  2
Warning: Abnormal IVB magnitude at EL   785 / GP  2
Warning: Abnormal IVB magnitude at EL   785 / GP  4
Warning: Abnormal IVB magnitude at EL   785 / GP  6
Warning: Abnormal IVB magnitude at EL   862 / GP  4
Warning: Abnormal dgmdt magnitude at EL   892 / GP  2
Warning: Abnormal IVB magnitude at EL   892 / GP  4
Warning: Abnormal IVB magnitude at EL   892 / GP  5
Warning: Abnormal dgmdt magnitude at EL   892 / GP  6
Warning: Abnormal IVB magnitude at EL   892 / GP  7
Warning: Abnormal IVB magnitude at EL   892 / GP  8
Warning: dGv1_dpk2i non-invertible at EL   893 / GP  1
Warning: Abnormal IVB magnitude at EL   893 / GP  2
Warning: Abnormal dgmdt magnitude at EL   893 / GP  5
Warning: Abnormal divbdt magnitude at EL   893 / GP  6
 319 / Increment duration:   0.303149s / Total time:    44.0104s
Warning: dGv1_dpk2i non-invertible at EL   727 / GP  6
Warning: Abnormal IVB magnitude at EL   727 / GP  8
Warning: Abnormal IVB magnitude at EL   728 / GP  5
Warning: Abnormal IVB magnitude at EL   728 / GP  7
Warning: dGv1_dpk2i non-invertible at EL   770 / GP  1
Warning: Abnormal IVB magnitude at EL   521 / GP  1
Warning: eqMnnGv2 non-invertible at EL   521 / GP  2
Warning: Abnormal IVB magnitude at EL   521 / GP  4
Warning: Abnormal IVB magnitude at EL   521 / GP  5
Warning: eqM66Gv1 non-invertible at EL   521 / GP  6
Warning: Abnormal IVB magnitude at EL   521 / GP  7
Warning: Abnormal IVB magnitude at EL   521 / GP  8
Warning: dGv1_dpk2i non-invertible at EL   727 / GP  2
Warning: Abnormal IVB magnitude at EL   727 / GP  3
Warning: dGv1_dpk2i non-invertible at EL   727 / GP  5
Warning: Abnormal dgmdt magnitude at EL   727 / GP  6
Warning: Abnormal IVB magnitude at EL   727 / GP  7
Warning: Abnormal divbdt magnitude at EL   727 / GP  8
Warning: dGv1_dpk2i non-invertible at EL   728 / GP  1
Warning: dGv1_dpk2i non-invertible at EL   728 / GP  3
Warning: Abnormal divbdt magnitude at EL   728 / GP  5
Warning: Abnormal divbdt magnitude at EL   728 / GP  7
Warning: Abnormal IVB magnitude at EL   761 / GP  2
Warning: Abnormal IVB magnitude at EL   761 / GP  4
Warning: Abnormal IVB magnitude at EL   761 / GP  6
Warning: Abnormal IVB magnitude at EL   761 / GP  8
Warning: Abnormal dgmdt magnitude at EL   770 / GP  1
Warning: Abnormal IVB magnitude at EL   770 / GP  2
Warning: dGv1_dpk2i non-invertible at EL   770 / GP  3
Warning: dGv1_dpk2i non-invertible at EL   770 / GP  5
 319 / Increment duration:   0.151574s / Total time:    44.0104s
Warning: Abnormal IVB magnitude at EL   727 / GP  6
 319 / Increment duration:   0.075787s / Total time:    44.0104s
 320 / Increment duration:   0.113681s / Total time:    44.0862s
 320 / Increment duration:   0.056840s / Total time:    44.0862s
 321 / Increment duration:   0.085261s / Total time:    44.1431s
 322 / Increment duration:   0.127891s / Total time:    44.2283s
Warning: Abnormal IVB magnitude at EL   521 / GP  1
Warning: Abnormal IVB magnitude at EL   521 / GP  3
Warning: Abnormal IVB magnitude at EL   521 / GP  5
Warning: Abnormal IVB magnitude at EL   521 / GP  7
Warning: Abnormal IVB magnitude at EL   521 / GP  8
Warning: Abnormal IVB magnitude at EL   606 / GP  5
Warning: Abnormal IVB magnitude at EL   727 / GP  1
Warning: dGv1_dpk2i non-invertible at EL   728 / GP  4
Warning: Abnormal IVB magnitude at EL   728 / GP  8
Warning: Abnormal IVB magnitude at EL   770 / GP  6
Warning: Abnormal IVB magnitude at EL   770 / GP  7
 322 / Increment duration:   0.063945s / Total time:    44.2283s
 323 / Increment duration:   0.095918s / Total time:    44.2923s
 323 / Increment duration:   0.047959s / Total time:    44.2923s
 324 / Increment duration:   0.071939s / Total time:    44.3402s
 325 / Increment duration:   0.107908s / Total time:    44.4122s
 325 / Increment duration:   0.053954s / Total time:    44.4122s
 326 / Increment duration:   0.080931s / Total time:    44.4661s
 327 / Increment duration:   0.121396s / Total time:    44.5471s
 327 / Increment duration:   0.060698s / Total time:    44.5471s
 328 / Increment duration:   0.091047s / Total time:    44.6077s
 329 / Increment duration:   0.136571s / Total time:    44.6988s
Warning: Abnormal IVB magnitude at EL   522 / GP  7
Warning: Abnormal IVB magnitude at EL   531 / GP  4
Warning: Abnormal IVB magnitude at EL   641 / GP  8
Warning: Abnormal dgmdt magnitude at EL   644 / GP  1
Warning: Abnormal IVB magnitude at EL   644 / GP  6
Warning: Abnormal IVB magnitude at EL   653 / GP  8
Warning: Abnormal IVB magnitude at EL   663 / GP  6
Warning: Abnormal IVB magnitude at EL   762 / GP  6
Warning: Abnormal IVB magnitude at EL   762 / GP  8
Warning: Abnormal IVB magnitude at EL   772 / GP  1
Warning: Abnormal IVB magnitude at EL   772 / GP  5
Warning: Abnormal IVB magnitude at EL   772 / GP  8
Warning: Abnormal IVB magnitude at EL   773 / GP  1
Warning: Abnormal IVB magnitude at EL   773 / GP  2
Warning: Abnormal IVB magnitude at EL   773 / GP  5
Warning: Abnormal IVB magnitude at EL   773 / GP  6
Warning: Abnormal IVB magnitude at EL   775 / GP  2
Warning: Abnormal IVB magnitude at EL   784 / GP  6
Warning: Abnormal IVB magnitude at EL   784 / GP  8
Warning: Abnormal IVB magnitude at EL   883 / GP  6
Warning: Abnormal IVB magnitude at EL   884 / GP  1
 329 / Increment duration:   0.068285s / Total time:    44.6988s
 330 / Increment duration:   0.102428s / Total time:    44.7671s
 330 / Increment duration:   0.051214s / Total time:    44.7671s
 331 / Increment duration:   0.076821s / Total time:    44.8183s
 332 / Increment duration:   0.104883s / Total time:    44.8951s
 333 / Increment duration:   0.100000s / Total time:    45.0000s
 334 / Increment duration:   0.100000s / Total time:    45.1000s
 335 / Increment duration:   0.100000s / Total time:    45.2000s
 336 / Increment duration:   0.100000s / Total time:    45.3000s
 337 / Increment duration:   0.100000s / Total time:    45.4000s
 338 / Increment duration:   0.100000s / Total time:    45.5000s
 339 / Increment duration:   0.100000s / Total time:    45.6000s
 340 / Increment duration:   0.100000s / Total time:    45.7000s
 341 / Increment duration:   0.100000s / Total time:    45.8000s
 342 / Increment duration:   0.100000s / Total time:    45.9000s
 343 / Increment duration:   0.100000s / Total time:    46.0000s
 344 / Increment duration:   0.100000s / Total time:    46.1000s
 345 / Increment duration:   0.100000s / Total time:    46.2000s
 346 / Increment duration:   0.100000s / Total time:    46.3000s
 347 / Increment duration:   0.100000s / Total time:    46.4000s
 348 / Increment duration:   0.100000s / Total time:    46.5000s
 349 / Increment duration:   0.100000s / Total time:    46.6000s
 350 / Increment duration:   0.100000s / Total time:    46.7000s
 351 / Increment duration:   0.100000s / Total time:    46.8000s
 352 / Increment duration:   0.100000s / Total time:    46.9000s
 353 / Increment duration:   0.100000s / Total time:    47.0000s
 354 / Increment duration:   0.100000s / Total time:    47.1000s
 355 / Increment duration:   0.100000s / Total time:    47.2000s
 356 / Increment duration:   0.100000s / Total time:    47.3000s
 357 / Increment duration:   0.100000s / Total time:    47.4000s
 358 / Increment duration:   0.100000s / Total time:    47.5000s
 359 / Increment duration:   0.100000s / Total time:    47.6000s
 360 / Increment duration:   0.100000s / Total time:    47.7000s
 361 / Increment duration:   0.100000s / Total time:    47.8000s
 362 / Increment duration:   0.100000s / Total time:    47.9000s
 363 / Increment duration:   0.100000s / Total time:    48.0000s
 364 / Increment duration:   0.100000s / Total time:    48.1000s
 365 / Increment duration:   0.100000s / Total time:    48.2000s
 366 / Increment duration:   0.100000s / Total time:    48.3000s
 367 / Increment duration:   0.100000s / Total time:    48.4000s
 368 / Increment duration:   0.100000s / Total time:    48.5000s
 369 / Increment duration:   0.100000s / Total time:    48.6000s
 370 / Increment duration:   0.100000s / Total time:    48.7000s
 371 / Increment duration:   0.100000s / Total time:    48.8000s
 372 / Increment duration:   0.100000s / Total time:    48.9000s
 373 / Increment duration:   0.100000s / Total time:    49.0000s
 374 / Increment duration:   0.100000s / Total time:    49.1000s
 375 / Increment duration:   0.100000s / Total time:    49.2000s
 375 / Increment duration:   0.050000s / Total time:    49.2000s
 376 / Increment duration:   0.050000s / Total time:    49.2500s
 377 / Increment duration:   0.075000s / Total time:    49.3000s
 378 / Increment duration:   0.025000s / Total time:    49.3750s
 379 / Increment duration:   0.100000s / Total time:    49.4000s
 379 / Increment duration:   0.050000s / Total time:    49.4000s
 380 / Increment duration:   0.050000s / Total time:    49.4500s
 381 / Increment duration:   0.100000s / Total time:    49.5000s
 381 / Increment duration:   0.050000s / Total time:    49.5000s
 382 / Increment duration:   0.050000s / Total time:    49.5500s
 383 / Increment duration:   0.075000s / Total time:    49.6000s
 384 / Increment duration:   0.025000s / Total time:    49.6750s
 385 / Increment duration:   0.100000s / Total time:    49.7000s
Warning: Abnormal IVB magnitude at EL   773 / GP  6
 385 / Increment duration:   0.050000s / Total time:    49.7000s
 386 / Increment duration:   0.050000s / Total time:    49.7500s
 387 / Increment duration:   0.100000s / Total time:    49.8000s
Warning: Abnormal IVB magnitude at EL   522 / GP  2
 387 / Increment duration:   0.050000s / Total time:    49.8000s
 388 / Increment duration:   0.050000s / Total time:    49.8500s
 389 / Increment duration:   0.100000s / Total time:    49.9000s
 390 / Increment duration:   0.100000s / Total time:    50.0000s
 391 / Increment duration:   0.100000s / Total time:    50.1000s
 392 / Increment duration:   0.100000s / Total time:    50.2000s
 393 / Increment duration:   0.100000s / Total time:    50.3000s
 394 / Increment duration:   0.100000s / Total time:    50.4000s
 395 / Increment duration:   0.100000s / Total time:    50.5000s
 396 / Increment duration:   0.100000s / Total time:    50.6000s
 397 / Increment duration:   0.100000s / Total time:    50.7000s
 398 / Increment duration:   0.100000s / Total time:    50.8000s
 399 / Increment duration:   0.100000s / Total time:    50.9000s
 400 / Increment duration:   0.100000s / Total time:    51.0000s
 401 / Increment duration:   0.100000s / Total time:    51.1000s
 402 / Increment duration:   0.100000s / Total time:    51.2000s
 403 / Increment duration:   0.100000s / Total time:    51.3000s
 404 / Increment duration:   0.100000s / Total time:    51.4000s
 405 / Increment duration:   0.100000s / Total time:    51.5000s
 406 / Increment duration:   0.100000s / Total time:    51.6000s
 407 / Increment duration:   0.100000s / Total time:    51.7000s
 408 / Increment duration:   0.100000s / Total time:    51.8000s
 409 / Increment duration:   0.100000s / Total time:    51.9000s
 410 / Increment duration:   0.100000s / Total time:    52.0000s
 411 / Increment duration:   0.100000s / Total time:    52.1000s
 412 / Increment duration:   0.100000s / Total time:    52.2000s
 413 / Increment duration:   0.100000s / Total time:    52.3000s
 414 / Increment duration:   0.100000s / Total time:    52.4000s
 415 / Increment duration:   0.100000s / Total time:    52.5000s
 416 / Increment duration:   0.100000s / Total time:    52.6000s
 417 / Increment duration:   0.100000s / Total time:    52.7000s
 418 / Increment duration:   0.100000s / Total time:    52.8000s
 419 / Increment duration:   0.100000s / Total time:    52.9000s
 420 / Increment duration:   0.100000s / Total time:    53.0000s
 421 / Increment duration:   0.100000s / Total time:    53.1000s
 422 / Increment duration:   0.100000s / Total time:    53.2000s
 423 / Increment duration:   0.100000s / Total time:    53.3000s
 424 / Increment duration:   0.100000s / Total time:    53.4000s
 425 / Increment duration:   0.100000s / Total time:    53.5000s
 426 / Increment duration:   0.100000s / Total time:    53.6000s
 427 / Increment duration:   0.100000s / Total time:    53.7000s
 428 / Increment duration:   0.100000s / Total time:    53.8000s
 429 / Increment duration:   0.100000s / Total time:    53.9000s
 430 / Increment duration:   0.100000s / Total time:    54.0000s
 431 / Increment duration:   0.100000s / Total time:    54.1000s
 432 / Increment duration:   0.100000s / Total time:    54.2000s
 432 / Increment duration:   0.050000s / Total time:    54.2000s
 433 / Increment duration:   0.050000s / Total time:    54.2500s
 434 / Increment duration:   0.100000s / Total time:    54.3000s
Warning: Abnormal IVB magnitude at EL   727 / GP  1
 434 / Increment duration:   0.050000s / Total time:    54.3000s
 435 / Increment duration:   0.050000s / Total time:    54.3500s
 436 / Increment duration:   0.100000s / Total time:    54.4000s
 436 / Increment duration:   0.050000s / Total time:    54.4000s
 437 / Increment duration:   0.050000s / Total time:    54.4500s
 438 / Increment duration:   0.075000s / Total time:    54.5000s
 439 / Increment duration:   0.025000s / Total time:    54.5750s
 440 / Increment duration:   0.100000s / Total time:    54.6000s
 440 / Increment duration:   0.050000s / Total time:    54.6000s
 441 / Increment duration:   0.050000s / Total time:    54.6500s
 442 / Increment duration:   0.100000s / Total time:    54.7000s
 443 / Increment duration:   0.100000s / Total time:    54.8000s
 443 / Increment duration:   0.050000s / Total time:    54.8000s
 444 / Increment duration:   0.050000s / Total time:    54.8500s
 445 / Increment duration:   0.100000s / Total time:    54.9000s
Warning: Abnormal IVB magnitude at EL   644 / GP  8
 445 / Increment duration:   0.050000s / Total time:    54.9000s
 446 / Increment duration:   0.050000s / Total time:    54.9500s


          THE ANALYSIS HAS BEEN COMPLETED
                                                                   
    Calculation time:  37876.335 seconds
    Collected warnings:  2560
     <End>                                                         
     --------------------------------------------------------------
     ------------------Crystal Plasticity Code---------------------
     --------------------------------------------------------------
     --------------------------------------------------------------



                              ANALYSIS COMPLETE
                              WITH      1 WARNING MESSAGES ON THE DAT FILE



     JOB TIME SUMMARY
       USER TIME (SEC)      =     4.33E+02
       SYSTEM TIME (SEC)    =      31.    
       TOTAL CPU TIME (SEC) =     4.65E+02
       WALLCLOCK TIME (SEC) =          487
