*Heading
 Biegung
** Job name: Biegung Model name: BW_Versuch
** Generated by: Abaqus/CAE 2022
*Preprint, echo=NO, model=NO, history=NO, contact=NO
**
** PARTS
**
*Part, name=Blech
*Node
      1,         -50.,         -0.5
      2,  -49.9000015,         -0.5
      3,  -49.7999992,         -0.5
      4,  -49.7000008,         -0.5
      5,  -49.5999985,         -0.5
      6,        -49.5,         -0.5
      7,  -49.4000015,         -0.5
      8,  -49.2999992,         -0.5
      9,  -49.2000008,         -0.5
     10,  -49.0999985,         -0.5
     11,         -49.,         -0.5
     12,  -48.9000015,         -0.5
     13,  -48.7999992,         -0.5
     14,  -48.7000008,         -0.5
     15,  -48.5999985,         -0.5
     16,        -48.5,         -0.5
     17,  -48.4000015,         -0.5
     18,  -48.2999992,         -0.5
     19,  -48.2000008,         -0.5
     20,  -48.0999985,         -0.5
** ... 5491 like lines cut
*Element, type=CPS4
   1,    1,    2,  503,  502
   2,    2,    3,  504,  503
   3,    3,    4,  505,  504
   4,    4,    5,  506,  505
   5,    5,    6,  507,  506
   6,    6,    7,  508,  507
   7,    7,    8,  509,  508
   8,    8,    9,  510,  509
   9,    9,   10,  511,  510
  10,   10,   11,  512,  511
  11,   11,   12,  513,  512
  12,   12,   13,  514,  513
  13,   13,   14,  515,  514
  14,   14,   15,  516,  515
  15,   15,   16,  517,  516
  16,   16,   17,  518,  517
  17,   17,   18,  519,  518
  18,   18,   19,  520,  519
  19,   19,   20,  521,  520
  20,   20,   21,  522,  521
** ... 4980 like lines cut
*Nset, nset=Blech, generate
    1,  5511,     1
*Elset, elset=Blech, generate
    1,  5000,     1
*Nset, nset=Symm_X, generate
  501,  5511,   501
*Elset, elset=Symm_X, generate
  500,  5000,   500
*Elset, elset=_Blech_S1, internal, generate
   1,  500,    1
*Elset, elset=_Blech_S2, internal, generate
  500,  5000,   500
*Elset, elset=_Blech_S3, internal, generate
 4501,  5000,     1
*Elset, elset=_Blech_S4, internal, generate
    1,  4501,   500
*Surface, type=ELEMENT, name=Blech
_Blech_S1, S1
_Blech_S2, S2
_Blech_S4, S4
_Blech_S3, S3
** Section: Stahl
*Solid Section, elset=Blech, material=Stahl
,
*End Part
**  
*Part, name=Klemme
*Node
      1,           0.,         -0.5
      2,           0.,          0.5
      3, -0.100020386, -0.500454724
      4, -0.200032502, -0.501818895
      5, -0.300028086, -0.504092455
      6, -0.399998844, -0.507275105
      7, -0.499936551, -0.511366606
      8, -0.599832892,  -0.51636672
      9, -0.699679673, -0.522274911
     10, -0.799468577, -0.529090762
     11, -0.899191439, -0.536813676
     12, -0.998839915, -0.545442998
     13,  -1.09840584, -0.554978073
     14,  -1.19788086, -0.565418065
     15,  -1.29725695, -0.576762199
     16,  -1.39652562, -0.589009404
     17,  -1.49567902, -0.602158725
     18,  -1.59470868,  -0.61620909
     19,  -1.69360638, -0.631159365
     20,  -1.79236424,  -0.64700824
** ... 1362 like lines cut
*Element, type=R2D2
  1,   1,   3
  2,   3,   4
  3,   4,   5
  4,   5,   6
  5,   6,   7
  6,   7,   8
  7,   8,   9
  8,   9,  10
  9,  10,  11
 10,  11,  12
 11,  12,  13
 12,  13,  14
 13,  14,  15
 14,  15,  16
 15,  16,  17
 16,  17,  18
 17,  18,  19
 18,  19,  20
 19,  20,  21
 20,  21,  22
** ... 1362 like lines cut
*Node
   1383,           0.,           0.,           0.
*Nset, nset=Klemme-RefPt_, internal
1383, 
*Nset, nset=Klemme, generate
    1,  1382,     1
*Elset, elset=Klemme, generate
    1,  1382,     1
*Nset, nset=RP
 1383,
*Elset, elset=_Surface_Upper_SNEG, internal, generate
  692,  1382,     1
*Surface, type=ELEMENT, name=Surface_Upper
_Surface_Upper_SNEG, SNEG
*Elset, elset=_Surface_Lower_SNEG, internal, generate
   1,  691,    1
*Surface, type=ELEMENT, name=Surface_Lower
_Surface_Lower_SNEG, SNEG
*Elset, elset=Klemme, generate
    1,  1382,     1
*Element, type=MASS, elset=RP_Mass_MASS_
1383, 1383
*Mass, elset=RP_Mass_MASS_
1e-05, 
*Element, type=ROTARYI, elset=RP_Mass_ROTI_
1384, 1383
*Rotary Inertia, elset=RP_Mass_ROTI_
1e-05, 1e-05, 1e-05, 0., 0., 0.
*End Part
**  
*Part, name=Werkzeug
*End Part
**  
**
** ASSEMBLY
**
*Assembly, name=Assembly
**  
*Instance, name=Blech_1, part=Blech
*End Instance
**  
*Instance, name=Klemme, part=Klemme
        -45.,           0.,           0.
*End Instance
**  
*Instance, name=Werkzeug_Oben, part=Werkzeug
          0.,          4.5,           0.
*Node
      1,           0.,           0.,           0.
*Nset, nset=Werkzeug_Oben-RefPt_, internal
1, 
*Nset, nset=RP
 1,
*Surface, type=SEGMENTS, name=Surface
START,           4.,           0.
 CIRCL,           0.,          -4.,           0.,           0.
 CIRCL,          -4.,           0.,           0.,           0.
 CIRCL,           0.,           4.,           0.,           0.
 CIRCL,           4.,           0.,           0.,           0.
*Element, type=MASS, elset=RP_Mass_MASS_
1, 1
*Mass, elset=RP_Mass_MASS_
1e-05, 
*Element, type=ROTARYI, elset=RP_Mass_ROTI_
2, 1
*Rotary Inertia, elset=RP_Mass_ROTI_
1e-05, 1e-05, 1e-05, 0., 0., 0.
*End Instance
**  
*Instance, name=Werkzeug_Unten, part=Werkzeug
          0.,         -4.5,           0.
*Node
      1,           0.,           0.,           0.
*Nset, nset=Werkzeug_Unten-RefPt_, internal
1, 
*Nset, nset=RP
 1,
*Surface, type=SEGMENTS, name=Surface
START,           4.,           0.
 CIRCL,           0.,          -4.,           0.,           0.
 CIRCL,          -4.,           0.,           0.,           0.
 CIRCL,           0.,           4.,           0.,           0.
 CIRCL,           4.,           0.,           0.,           0.
*Element, type=MASS, elset=RP_Mass_MASS_
1, 1
*Mass, elset=RP_Mass_MASS_
1e-05, 
*Element, type=ROTARYI, elset=RP_Mass_ROTI_
2, 1
*Rotary Inertia, elset=RP_Mass_ROTI_
1e-05, 1e-05, 1e-05, 0., 0., 0.
*End Instance
**  
*Surface, type=NODE, name=Werkzeug_Unten_RP_CNS_, internal
Werkzeug_Unten.RP, 1.
*Rigid Body, ref node=Klemme.Klemme-RefPt_, elset=Klemme.Klemme
** Constraint: Werkzeug
*MPC
LINK, Werkzeug_Unten.RP, Werkzeug_Oben.RP
** Constraint: Werkzeug_Oben
*Rigid Body, ref node=Werkzeug_Oben.RP, analytical surface=Werkzeug_Oben.Surface, position=CENTER OF MASS
** Constraint: Werkzeug_Unten
*Rigid Body, ref node=Werkzeug_Unten.RP, analytical surface=Werkzeug_Unten.Surface, position=CENTER OF MASS
*End Assembly
*Amplitude, name=Amplitude, smooth=0.
             0.,              0.,              1.,              1.,              2.,              0.,              3.,             -1.
             4.,              0.,              5.,              1.,              6.,              0.,              7.,             -1.
             8.,              0.,              9.,              1.,             10.,              0.,             11.,             -1.
            12.,              0.,             13.,              1.,             14.,              0.,             15.,             -1.
            16.,              0.,             17.,              1.,             18.,              0.,             19.,             -1.
            20.,              0.,             21.,              1.,             22.,              0.,             23.,             -1.
            24.,              0.,             25.,              1.,             26.,              0.,             27.,             -1.
            28.,              0.,             29.,              1.,             30.,              0.,             31.,             -1.
            32.,              0.,             33.,              1.,             34.,              0.,             35.,             -1.
            36.,              0.,             37.,              1.,             38.,              0.,             39.,             -1.
            40.,              0.,             41.,              1.,             42.,              0.,             43.,             -1.
            44.,              0.,             45.,              1.,             46.,              0.,             47.,             -1.
            48.,              0.,             49.,              1.,             50.,              0.,             51.,             -1.
            52.,              0.,             53.,              1.,             54.,              0.,             55.,             -1.
            56.,              0.,             57.,              1.,             58.,              0.,             59.,             -1.
            60.,              0.,             61.,              1.,             62.,              0.,             63.,             -1.
            64.,              0.,             65.,              1.,             66.,              0.,             67.,             -1.
            68.,              0.,             69.,              1.,             70.,              0.,             71.,             -1.
            72.,              0.,             73.,              1.,             74.,              0.,             75.,             -1.
            76.,              0.,             77.,              1.,             78.,              0.,             79.,             -1.
            80.,              0.
*Amplitude, name=Amplitude_2, smooth=0.
             0.,              0.,           0.001,              1.
** 
** MATERIALS
** 
*Material, name=Stahl
*Density
 7.8e-09,
*Elastic
210000., 0.3
*Plastic, hardening=COMBINED, datatype=PARAMETERS, number backstresses=1
1200.,27000.,   20.
*Cyclic Hardening, parameters
1200.,100., 40.
** 
** INTERACTION PROPERTIES
** 
*Surface Interaction, name=Contact_Friction
1.,
*Friction, slip tolerance=0.005
 0.2,
*Surface Behavior, pressure-overclosure=HARD
*Surface Interaction, name=Contact_NoFriction
1.,
*Friction
0.,
*Surface Behavior, pressure-overclosure=HARD
** 
** BOUNDARY CONDITIONS
** 
** Name: Klemme Type: Displacement/Rotation
*Boundary
Klemme.RP, 1, 1
Klemme.RP, 2, 2
** Name: Symm_XBC_1 Type: Symmetry/Antisymmetry/Encastre
*Boundary
Blech_1.Symm_X, XSYMM
** Name: Werkzeug_Oben Type: Displacement/Rotation
*Boundary
Werkzeug_Oben.RP, 1, 1
Werkzeug_Oben.RP, 6, 6
** Name: Werkzeug_Unten Type: Displacement/Rotation
*Boundary
Werkzeug_Unten.RP, 1, 1
Werkzeug_Unten.RP, 6, 6
** 
** INTERACTIONS
** 
** Interaction: Klemme_Oben-Blech
*Contact Pair, interaction=Contact_NoFriction, type=SURFACE TO SURFACE, tracking=STATE
Blech_1.Blech, Klemme.Surface_Upper
** Interaction: Klemme_Unten-Blech
*Contact Pair, interaction=Contact_NoFriction, type=SURFACE TO SURFACE, tracking=STATE
Blech_1.Blech, Klemme.Surface_Lower
** Interaction: Werkzeug_Oben
*Contact Pair, interaction=Contact_NoFriction, type=SURFACE TO SURFACE, tracking=STATE
Blech_1.Blech, Werkzeug_Oben.Surface
** Interaction: Werkzeug_Unten
*Contact Pair, interaction=Contact_NoFriction, type=SURFACE TO SURFACE, tracking=STATE
Blech_1.Blech, Werkzeug_Unten.Surface
** ----------------------------------------------------------------
** 
** STEP: Bewegung
** 
*Step, name=Bewegung, nlgeom=YES, inc=1000000
*Dynamic
0.02,80.,1e-15,0.5
** 
** BOUNDARY CONDITIONS
** 
** Name: Werkzeug_Oben Type: Displacement/Rotation
*Boundary, amplitude=Amplitude
Werkzeug_Oben.RP, 1, 1
Werkzeug_Oben.RP, 2, 2, -20.
Werkzeug_Oben.RP, 6, 6
** Name: Werkzeug_Unten Type: Displacement/Rotation
*Boundary, amplitude=Amplitude
Werkzeug_Unten.RP, 1, 1
Werkzeug_Unten.RP, 2, 2, -20.
Werkzeug_Unten.RP, 6, 6
** 
** CONTROLS
** 
*Controls, reset
*Controls, parameters=time incrementation
, , , , , , , 15, , , 
** 
** OUTPUT REQUESTS
** 
*Restart, write, frequency=0
** 
** FIELD OUTPUT: F-Output-1
** 
*Output, field, time interval=0.025
*Node Output
RT, UT
** 
** HISTORY OUTPUT: H-Output-1
** 
*Output, history, time interval=0.025
*Energy Output
ALLIE, ALLKE, ETOTAL
*End Step
