 Abaqus/Standard 2022.HF6                  DATE 13-Sep-2023 TIME 16:04:28
 SUMMARY OF JOB INFORMATION:
 STEP  INC ATT SEVERE EQUIL TOTAL  TOTAL      STEP       INC OF       DOF    IF
               DISCON ITERS ITERS  TIME/    TIME/LPF    TIME/LPF    MONITOR RIKS
               ITERS               FREQ
   1     1   1     0     2     2  0.100      0.100      0.1000    
   1     2   1     0     2     2  0.200      0.200      0.1000    
   1     3   1     0     1     1  0.300      0.300      0.1000    
   1     4   1     0     2     2  0.400      0.400      0.1000    
   1     5   1     0     2     2  0.500      0.500      0.1000    
   1     6   1     0     2     2  0.600      0.600      0.1000    
   1     7   1     0     1     1  0.700      0.700      0.1000    
   1     8   1     0     2     2  0.800      0.800      0.1000    
   1     9   1     0     2     2  0.900      0.900      0.1000    
   1    10   1     0     1     1  1.00       1.00       0.1000    
   1    11   1     0     1     1  1.10       1.10       0.1000    
   1    12   1     0     2     2  1.20       1.20       0.1000    
   1    13   1U    0     1     1  1.20       1.20       0.1000    
   1    13   2     0     2     2  1.25       1.25       0.05000   
   1    14   1     0     2     2  1.30       1.30       0.05000   
   1    15   1     0     3     3  1.40       1.40       0.1000    
   1    16   1U    0     1     1  1.40       1.40       0.1000    
   1    16   2     0     3     3  1.45       1.45       0.05000   
   1    17   1     0     2     2  1.50       1.50       0.05000   
   1    18   1     0     2     2  1.58       1.58       0.07500   
   1    19   1     0     1     1  1.60       1.60       0.02500   
   1    20   1U    0     1     1  1.60       1.60       0.1000    
   1    20   2     0     2     2  1.65       1.65       0.05000   
   1    21   1     0     2     2  1.70       1.70       0.05000   
   1    22   1     0     2     2  1.78       1.78       0.07500   
   1    23   1     0     1     1  1.80       1.80       0.02500   
   1    24   1     0     3     3  1.90       1.90       0.1000    
   1    25   1     0     2     2  2.00       2.00       0.1000    
   1    26   1     0     2     2  2.10       2.10       0.1000    
   1    27   1     0     2     2  2.20       2.20       0.1000    
   1    28   1     0     2     2  2.30       2.30       0.1000    
   1    29   1     0     3     3  2.40       2.40       0.1000    
   1    30   1     0     2     2  2.50       2.50       0.1000    
   1    31   1     0     2     2  2.60       2.60       0.1000    
   1    32   1     0     2     2  2.70       2.70       0.1000    
   1    33   1     0     1     1  2.80       2.80       0.1000    
   1    34   1     0     2     2  2.90       2.90       0.1000    
   1    35   1     0     2     2  3.00       3.00       0.1000    
   1    36   1     0     2     2  3.10       3.10       0.1000    
   1    37   1     0     2     2  3.20       3.20       0.1000    
   1    38   1     0     2     2  3.30       3.30       0.1000    
   1    39   1     0     2     2  3.40       3.40       0.1000    
   1    40   1     0     2     2  3.50       3.50       0.1000    
   1    41   1     0     2     2  3.60       3.60       0.1000    
   1    42   1     0     2     2  3.70       3.70       0.1000    
   1    43   1     0     2     2  3.80       3.80       0.1000    
   1    44   1     0     2     2  3.90       3.90       0.1000    
   1    45   1     0     2     2  4.00       4.00       0.1000    
   1    46   1     0     2     2  4.10       4.10       0.1000    
   1    47   1     0     2     2  4.20       4.20       0.1000    
   1    48   1     0     3     3  4.30       4.30       0.1000    
   1    49   1     0     2     2  4.40       4.40       0.1000    
   1    50   1     0     2     2  4.50       4.50       0.1000    
   1    51   1     0     2     2  4.60       4.60       0.1000    
   1    52   1     0     2     2  4.70       4.70       0.1000    
   1    53   1     0     2     2  4.80       4.80       0.1000    
   1    54   1     0     1     1  4.90       4.90       0.1000    
   1    55   1     0     3     3  5.00       5.00       0.1000    
   1    56   1U    0     1     1  5.00       5.00       0.1688    
   1    56   2U    0     1     1  5.00       5.00       0.08438   
   1    56   3U    0     3     3  5.00       5.00       0.04219   
   1    56   4     0     3     3  5.02       5.02       0.02109   
   1    57   1     0     2     2  5.05       5.05       0.03164   
   1    58   1     0     2     2  5.10       5.10       0.04746   
   1    59   1     0     2     2  5.17       5.17       0.07119   
   1    60   1     0     2     2  5.28       5.28       0.1068    
   1    61   1     0     2     2  5.44       5.44       0.1602    
   1    62   1     0     2     2  5.68       5.68       0.2403    
   1    63   1     0     2     2  6.04       6.04       0.3604    
   1    64   1U    0     1     1  6.04       6.04       0.5406    
   1    64   2     0     3     3  6.31       6.31       0.2703    
   1    65   1     0     4     4  6.71       6.71       0.4055    
   1    66   1     0     4     4  7.32       7.32       0.6082    
   1    67   1U    0     2     2  7.32       7.32       0.9123    
   1    67   2     0     4     4  7.78       7.78       0.4561    
   1    68   1U    0     1     1  7.78       7.78       0.6842    
   1    68   2     0     3     3  8.12       8.12       0.3421    
   1    69   1U    0     1     1  8.12       8.12       0.5132    
   1    69   2     0     2     2  8.38       8.38       0.2566    
   1    70   1U    0     1     1  8.38       8.38       0.3849    
   1    70   2     0     2     2  8.57       8.57       0.1924    
   1    71   1U    0     1     1  8.57       8.57       0.2887    
   1    71   2U    0     1     1  8.57       8.57       0.1443    
   1    71   3     0     2     2  8.64       8.64       0.07216   
   1    72   1     0     2     2  8.75       8.75       0.1082    
   1    73   1U    0     1     1  8.75       8.75       0.1624    
   1    73   2U    0     1     1  8.75       8.75       0.08118   
   1    73   3     0     1     1  8.79       8.79       0.04059   
   1    74   1     0     2     2  8.85       8.85       0.06089   
   1    75   1U    0     1     1  8.85       8.85       0.09133   
   1    75   2     0     2     2  8.90       8.90       0.04567   
   1    76   1U    0     1     1  8.90       8.90       0.06850   
   1    76   2     0     2     2  8.93       8.93       0.03425   
   1    77   1     0     2     2  8.98       8.98       0.05137   
   1    78   1U    0     1     1  8.98       8.98       0.07706   
   1    78   2     0     2     2  9.02       9.02       0.03853   
   1    79   1     0     2     2  9.08       9.08       0.05780   
   1    80   1U    0     1     1  9.08       9.08       0.08669   
   1    80   2     0     2     2  9.12       9.12       0.04335   
   1    81   1U    0     1     1  9.12       9.12       0.06502   
   1    81   2     0     2     2  9.16       9.16       0.03251   
   1    82   1     0     2     2  9.20       9.20       0.04876   
   1    83   1U    0     1     1  9.20       9.20       0.07315   
   1    83   2     0     2     2  9.24       9.24       0.03657   
   1    84   1     0     2     2  9.30       9.30       0.05486   
   1    85   1U    0     1     1  9.30       9.30       0.08229   
   1    85   2     0     2     2  9.34       9.34       0.04115   
   1    86   1     0     2     2  9.40       9.40       0.06172   
   1    87   1U    0     1     1  9.40       9.40       0.09258   
   1    87   2     0     2     2  9.44       9.44       0.04629   
   1    88   1     0     2     2  9.51       9.51       0.06943   
   1    89   1U    0     1     1  9.51       9.51       0.1041    
   1    89   2     0     2     2  9.57       9.57       0.05207   
   1    90   1     0     2     2  9.64       9.64       0.07811   
   1    91   1U    0     1     1  9.64       9.64       0.1172    
   1    91   2     0     2     2  9.70       9.70       0.05858   
   1    92   1     0     2     2  9.79       9.79       0.08788   
   1    93   1U    0     1     1  9.79       9.79       0.1318    
   1    93   2     0     2     2  9.86       9.86       0.06591   
   1    94   1     0     2     2  9.96       9.96       0.09886   
   1    95   1U    0     1     1  9.96       9.96       0.1483    
   1    95   2     0     2     2  10.0       10.0       0.07415   
   1    96   1     0     2     2  10.1       10.1       0.1112    
   1    97   1U    0     1     1  10.1       10.1       0.1668    
   1    97   2     0     1     1  10.2       10.2       0.08341   
   1    98   1     0     2     2  10.3       10.3       0.1251    
   1    99   1     0     2     2  10.5       10.5       0.1877    
   1   100   1U    0     1     1  10.5       10.5       0.2815    
   1   100   2     0     2     2  10.7       10.7       0.1408    
   1   101   1     0     3     3  10.9       10.9       0.2111    
   1   102   1U    0     1     1  10.9       10.9       0.3167    
   1   102   2     0     2     2  11.0       11.0       0.1584    
   1   103   1     0     3     3  11.3       11.3       0.2375    
   1   104   1     0     4     4  11.6       11.6       0.3563    
   1   105   1     0     4     4  12.2       12.2       0.5344    
   1   106   1     0     4     4  13.0       13.0       0.8017    
   1   107   1U    0     1     1  13.0       13.0       1.203     
   1   107   2     0     3     3  13.6       13.6       0.6013    
   1   108   1U    0     1     1  13.6       13.6       0.9019    
   1   108   2U    0     1     1  13.6       13.6       0.4509    
   1   108   3     0     2     2  13.8       13.8       0.2255    
   1   109   1U    0     1     1  13.8       13.8       0.3382    
   1   109   2U    0     1     1  13.8       13.8       0.1691    
   1   109   3     0     2     2  13.9       13.9       0.08455   
   1   110   1U    0     1     1  13.9       13.9       0.1268    
   1   110   2     0     1     1  14.0       14.0       0.06341   
   1   111   1U    0     1     1  14.0       14.0       0.09512   
   1   111   2     0     2     2  14.0       14.0       0.04756   
   1   112   1U    0     1     1  14.0       14.0       0.07134   
   1   112   2     0     2     2  14.0       14.0       0.03567   
   1   113   1     0     2     2  14.1       14.1       0.05351   
   1   114   1U    0     1     1  14.1       14.1       0.08026   
   1   114   2     0     2     2  14.1       14.1       0.04013   
   1   115   1     0     2     2  14.2       14.2       0.06019   
   1   116   1U    0     1     1  14.2       14.2       0.09029   
   1   116   2     0     2     2  14.2       14.2       0.04514   
   1   117   1U    0     1     1  14.2       14.2       0.06772   
   1   117   2     0     2     2  14.3       14.3       0.03386   
   1   118   1     0     2     2  14.3       14.3       0.05079   
   1   119   1U    0     1     1  14.3       14.3       0.07618   
   1   119   2     0     2     2  14.4       14.4       0.03809   
   1   120   1     0     2     2  14.4       14.4       0.05714   
   1   121   1U    0     1     1  14.4       14.4       0.08570   
   1   121   2     0     2     2  14.5       14.5       0.04285   
   1   122   1     0     2     2  14.5       14.5       0.06428   
   1   123   1U    0     1     1  14.5       14.5       0.09642   
   1   123   2     0     2     2  14.6       14.6       0.04821   
   1   124   1     0     2     2  14.6       14.6       0.07231   
   1   125   1U    0     1     1  14.6       14.6       0.1085    
   1   125   2     0     2     2  14.7       14.7       0.05424   
   1   126   1     0     2     2  14.8       14.8       0.08135   
   1   127   1U    0     1     1  14.8       14.8       0.1220    
   1   127   2     0     2     2  14.8       14.8       0.06101   
   1   128   1     0     2     2  14.9       14.9       0.09152   
   1   129   1U    0     1     1  14.9       14.9       0.1373    
   1   129   2     0     2     2  15.0       15.0       0.06864   
   1   130   1     0     2     2  15.1       15.1       0.1030    
   1   131   1     0     2     2  15.3       15.3       0.1544    
   1   132   1U    0     1     1  15.3       15.3       0.2317    
   1   132   2     0     2     2  15.4       15.4       0.1158    
   1   133   1     0     2     2  15.5       15.5       0.1737    
   1   134   1U    0     1     1  15.5       15.5       0.2606    
   1   134   2     0     2     2  15.7       15.7       0.1303    
   1   135   1     0     2     2  15.9       15.9       0.1955    
   1   136   1U    0     1     1  15.9       15.9       0.2932    
   1   136   2     0     2     2  16.0       16.0       0.1466    
   1   137   1     0     3     3  16.2       16.2       0.2199    
   1   138   1     0     3     3  16.6       16.6       0.3299    
   1   139   1     0     4     4  17.1       17.1       0.4948    
   1   140   1     0     4     4  17.8       17.8       0.7422    
   1   141   1U    0     1     1  17.8       17.8       1.113     
   1   141   2     0     3     3  18.4       18.4       0.5566    
   1   142   1U    0     1     1  18.4       18.4       0.8349    
   1   142   2     0     2     2  18.8       18.8       0.4175    
   1   143   1U    0     1     1  18.8       18.8       0.6262    
   1   143   2U    0     1     1  18.8       18.8       0.3131    
   1   143   3U    0     1     1  18.8       18.8       0.1566    
   1   143   4     0     2     2  18.9       18.9       0.07828   
   1   144   1U    0     1     1  18.9       18.9       0.1174    
   1   144   2     0     1     1  18.9       18.9       0.05871   
   1   145   1U    0     1     1  18.9       18.9       0.08806   
   1   145   2     0     1     1  19.0       19.0       0.04403   
   1   146   1     0     2     2  19.0       19.0       0.06604   
   1   147   1U    0     1     1  19.0       19.0       0.09907   
   1   147   2     0     2     2  19.1       19.1       0.04953   
   1   148   1U    0     1     1  19.1       19.1       0.07430   
   1   148   2     0     2     2  19.1       19.1       0.03715   
   1   149   1     0     2     2  19.2       19.2       0.05573   
   1   150   1U    0     1     1  19.2       19.2       0.08359   
   1   150   2     0     2     2  19.2       19.2       0.04179   
   1   151   1U    0     1     1  19.2       19.2       0.06269   
   1   151   2     0     2     2  19.2       19.2       0.03135   
   1   152   1     0     2     2  19.3       19.3       0.04702   
   1   153   1U    0     1     1  19.3       19.3       0.07053   
   1   153   2     0     2     2  19.3       19.3       0.03526   
   1   154   1     0     2     2  19.4       19.4       0.05290   
   1   155   1U    0     2     2  19.4       19.4       0.07934   
   1   155   2     0     2     2  19.4       19.4       0.03967   
   1   156   1     0     2     2  19.5       19.5       0.05951   
   1   157   1U    0     1     1  19.5       19.5       0.08926   
   1   157   2     0     2     2  19.5       19.5       0.04463   
   1   158   1     0     2     2  19.6       19.6       0.06695   
   1   159   1U    0     1     1  19.6       19.6       0.1004    
   1   159   2     0     2     2  19.6       19.6       0.05021   
   1   160   1     0     2     2  19.7       19.7       0.07531   
   1   161   1U    0     1     1  19.7       19.7       0.1130    
   1   161   2     0     2     2  19.8       19.8       0.05649   
   1   162   1     0     2     2  19.9       19.9       0.08473   
   1   163   1     0     2     2  20.0       20.0       0.1271    
   1   164   1U    0     1     1  20.0       20.0       0.1906    
   1   164   2U    0     1     1  20.0       20.0       0.09532   
   1   164   3     0     2     2  20.0       20.0       0.04766   
   1   165   1     0     2     2  20.1       20.1       0.07149   
   1   166   1     0     2     2  20.2       20.2       0.1072    
   1   167   1U    0     1     1  20.2       20.2       0.1609    
   1   167   2     0     2     2  20.3       20.3       0.08043   
   1   168   1     0     2     2  20.4       20.4       0.1206    
   1   169   1U    0     1     1  20.4       20.4       0.1810    
   1   169   2     0     2     2  20.5       20.5       0.09048   
   1   170   1     0     2     2  20.6       20.6       0.1357    
   1   171   1     0     3     3  20.8       20.8       0.2036    
   1   172   1U    0     1     1  20.8       20.8       0.3054    
   1   172   2     0     2     2  21.0       21.0       0.1527    
   1   173   1     0     3     3  21.2       21.2       0.2290    
   1   174   1U    0     1     1  21.2       21.2       0.3435    
   1   174   2     0     2     2  21.4       21.4       0.1718    
   1   175   1     0     3     3  21.6       21.6       0.2577    
   1   176   1     0     4     4  22.0       22.0       0.3865    
   1   177   1     0     4     4  22.6       22.6       0.5797    
   1   178   1U    0     1     1  22.6       22.6       0.8696    
   1   178   2     0     3     3  23.1       23.1       0.4348    
   1   179   1U    0     2     2  23.1       23.1       0.6522    
   1   179   2     0     2     2  23.4       23.4       0.3261    
   1   180   1     0     2     2  23.9       23.9       0.4891    
   1   181   1U    0     0     0  23.9       23.9       0.7337    
   1   181   2U    0     1     1  23.9       23.9       0.1834    
   1   181   3     0     2     2  24.0       24.0       0.09171   
   1   182   1U    0     1     1  24.0       24.0       0.1376    
   1   182   2     0     1     1  24.0       24.0       0.06878   
   1   183   1U    0     1     1  24.0       24.0       0.1032    
   1   183   2     0     2     2  24.1       24.1       0.05159   
   1   184   1U    0     1     1  24.1       24.1       0.07738   
   1   184   2     0     2     2  24.1       24.1       0.03869   
   1   185   1     0     2     2  24.2       24.2       0.05804   
   1   186   1U    0     1     1  24.2       24.2       0.08706   
   1   186   2     0     2     2  24.2       24.2       0.04353   
   1   187   1     0     2     2  24.3       24.3       0.06529   
   1   188   1U    0     1     1  24.3       24.3       0.09794   
   1   188   2     0     2     2  24.3       24.3       0.04897   
   1   189   1U    0     1     1  24.3       24.3       0.07345   
   1   189   2     0     2     2  24.4       24.4       0.03673   
   1   190   1     0     2     2  24.4       24.4       0.05509   
   1   191   1     0     2     2  24.5       24.5       0.08264   
   1   192   1U    0     1     1  24.5       24.5       0.1240    
   1   192   2     0     2     2  24.6       24.6       0.06198   
   1   193   1U    0     1     1  24.6       24.6       0.09296   
   1   193   2     0     2     2  24.6       24.6       0.04648   
   1   194   1     0     2     2  24.7       24.7       0.06972   
   1   195   1     0     2     2  24.8       24.8       0.1046    
   1   196   1U    0     1     1  24.8       24.8       0.1569    
   1   196   2     0     2     2  24.9       24.9       0.07844   
   1   197   1     0     2     2  25.0       25.0       0.1177    
   1   198   1U    0     1     1  25.0       25.0       0.1765    
   1   198   2     0     2     2  25.1       25.1       0.08824   
   1   199   1     0     2     2  25.2       25.2       0.1324    
   1   200   1U    0     1     1  25.2       25.2       0.1985    
   1   200   2     0     2     2  25.3       25.3       0.09927   
   1   201   1     0     2     2  25.5       25.5       0.1489    
   1   202   1U    0     1     1  25.5       25.5       0.2234    
   1   202   2     0     2     2  25.6       25.6       0.1117    
   1   203   1     0     2     2  25.7       25.7       0.1675    
   1   204   1U    0     3     3  25.7       25.7       0.2513    
   1   204   2     0     2     2  25.9       25.9       0.1256    
   1   205   1     0     2     2  26.0       26.0       0.1885    
   1   206   1     0     3     3  26.3       26.3       0.2827    
   1   207   1     0     4     4  26.8       26.8       0.4240    
   1   208   1     0     4     4  27.4       27.4       0.6361    
   1   209   1U    0     1     1  27.4       27.4       0.9541    
   1   209   2     0     4     4  27.9       27.9       0.4771    
   1   210   1     0     3     3  28.6       28.6       0.7156    
   1   211   1U    0     1     1  28.6       28.6       1.073     
   1   211   2U    0     1     1  28.6       28.6       0.5367    
   1   211   3     0     2     2  28.9       28.9       0.2683    
   1   212   1U    0     1     1  28.9       28.9       0.4025    
   1   212   2U    0     1     1  28.9       28.9       0.2013    
   1   212   3     0     2     2  29.0       29.0       0.1006    
   1   213   1U    0     1     1  29.0       29.0       0.1509    
   1   213   2     0     1     1  29.0       29.0       0.07547   
   1   214   1U    0     1     1  29.0       29.0       0.1132    
   1   214   2     0     1     1  29.1       29.1       0.05660   
   1   215   1U    0     1     1  29.1       29.1       0.08491   
   1   215   2     0     2     2  29.1       29.1       0.04245   
   1   216   1     0     2     2  29.2       29.2       0.06368   
   1   217   1U    0     1     1  29.2       29.2       0.09552   
   1   217   2     0     2     2  29.2       29.2       0.04776   
   1   218   1U    0     1     1  29.2       29.2       0.07164   
   1   218   2     0     2     2  29.3       29.3       0.03582   
   1   219   1     0     2     2  29.3       29.3       0.05373   
   1   220   1U    0     1     1  29.3       29.3       0.08059   
   1   220   2     0     2     2  29.4       29.4       0.04030   
   1   221   1     0     2     2  29.4       29.4       0.06045   
   1   222   1U    0     1     1  29.4       29.4       0.09067   
   1   222   2     0     2     2  29.5       29.5       0.04533   
   1   223   1     0     2     2  29.5       29.5       0.06800   
   1   224   1U    0     1     1  29.5       29.5       0.1020    
   1   224   2     0     2     2  29.6       29.6       0.05100   
   1   225   1     0     2     2  29.7       29.7       0.07650   
   1   226   1U    0     1     1  29.7       29.7       0.1148    
   1   226   2     0     2     2  29.7       29.7       0.05738   
   1   227   1     0     2     2  29.8       29.8       0.08606   
   1   228   1U    0     1     1  29.8       29.8       0.1291    
   1   228   2     0     2     2  29.9       29.9       0.06455   
   1   229   1     0     2     2  30.0       30.0       0.09682   
   1   230   1U    0     1     1  30.0       30.0       0.1452    
   1   230   2     0     2     2  30.0       30.0       0.07262   
   1   231   1     0     2     2  30.2       30.2       0.1089    
   1   232   1U    0     1     1  30.2       30.2       0.1634    
   1   232   2     0     2     2  30.2       30.2       0.08169   
   1   233   1     0     2     2  30.4       30.4       0.1225    
   1   234   1U    0     1     1  30.4       30.4       0.1838    
   1   234   2     0     2     2  30.5       30.5       0.09190   
   1   235   1     0     2     2  30.6       30.6       0.1379    
   1   236   1U    0     1     1  30.6       30.6       0.2068    
   1   236   2     0     2     2  30.7       30.7       0.1034    
   1   237   1     0     2     2  30.8       30.8       0.1551    
   1   238   1     0     3     3  31.1       31.1       0.2326    
   1   239   1     0     4     4  31.4       31.4       0.3490    
   1   240   1     0     4     4  32.0       32.0       0.5234    
   1   241   1     0     4     4  32.7       32.7       0.7851    
   1   242   1U    0     1     1  32.7       32.7       1.178     
   1   242   2     0     3     3  33.3       33.3       0.5889    
   1   243   1U    0     1     1  33.3       33.3       0.8833    
   1   243   2     0     2     2  33.8       33.8       0.4416    
   1   244   1U    0     1     1  33.8       33.8       0.6625    
   1   244   2U    0     1     1  33.8       33.8       0.3312    
   1   244   3     0     2     2  33.9       33.9       0.1656    
   1   245   1U    0     1     1  33.9       33.9       0.2484    
   1   245   2     0     1     1  34.1       34.1       0.1242    
   1   246   1U    0     1     1  34.1       34.1       0.1863    
   1   246   2U    0     1     1  34.1       34.1       0.09316   
   1   246   3     0     1     1  34.1       34.1       0.04658   
   1   247   1     0     2     2  34.2       34.2       0.06987   
   1   248   1U    0     1     1  34.2       34.2       0.1048    
   1   248   2     0     2     2  34.2       34.2       0.05240   
   1   249   1     0     2     2  34.3       34.3       0.07860   
   1   250   1U    0     1     1  34.3       34.3       0.1179    
   1   250   2     0     2     2  34.4       34.4       0.05895   
   1   251   1U    0     1     1  34.4       34.4       0.08843   
   1   251   2     0     2     2  34.4       34.4       0.04421   
   1   252   1     0     2     2  34.5       34.5       0.06632   
   1   253   1U    0     1     1  34.5       34.5       0.09948   
   1   253   2     0     2     2  34.5       34.5       0.04974   
   1   254   1     0     2     2  34.6       34.6       0.07461   
   1   255   1U    0     1     1  34.6       34.6       0.1119    
   1   255   2     0     2     2  34.7       34.7       0.05596   
   1   256   1     0     2     2  34.7       34.7       0.08394   
   1   257   1U    0     1     1  34.7       34.7       0.1259    
   1   257   2     0     2     2  34.8       34.8       0.06295   
   1   258   1     0     2     2  34.9       34.9       0.09443   
   1   259   1U    0     1     1  34.9       34.9       0.1416    
   1   259   2     0     2     2  35.0       35.0       0.07082   
   1   260   1     0     2     2  35.1       35.1       0.1062    
   1   261   1U    0     1     1  35.1       35.1       0.1594    
   1   261   2     0     2     2  35.2       35.2       0.07968   
   1   262   1     0     2     2  35.3       35.3       0.1195    
   1   263   1U    0     1     1  35.3       35.3       0.1793    
   1   263   2     0     2     2  35.4       35.4       0.08963   
   1   264   1     0     2     2  35.5       35.5       0.1345    
   1   265   1U    0     1     1  35.5       35.5       0.2017    
   1   265   2     0     2     2  35.6       35.6       0.1008    
   1   266   1     0     2     2  35.7       35.7       0.1513    
   1   267   1     0     3     3  36.0       36.0       0.2269    
   1   268   1U    0     1     1  36.0       36.0       0.3403    
   1   268   2     0     2     2  36.1       36.1       0.1702    
   1   269   1     0     3     3  36.4       36.4       0.2552    
   1   270   1     0     4     4  36.8       36.8       0.3829    
   1   271   1     0     4     4  37.4       37.4       0.5743    
   1   272   1     0     4     4  38.2       38.2       0.8615    
   1   273   1U    0     1     1  38.2       38.2       1.292     
   1   273   2     0     2     2  38.9       38.9       0.6461    
   1   274   1U    0     0     0  38.9       38.9       0.9691    
   1   274   2U    0     1     1  38.9       38.9       0.2423    
   1   274   3     0     2     2  39.0       39.0       0.1211    
   1   275   1U    0     1     1  39.0       39.0       0.1817    
   1   275   2     0     1     1  39.1       39.1       0.09086   
   1   276   1U    0     1     1  39.1       39.1       0.1363    
   1   276   2     0     1     1  39.1       39.1       0.06814   
   1   277   1U    0     1     1  39.1       39.1       0.1022    
   1   277   2     0     2     2  39.2       39.2       0.05111   
   1   278   1     0     2     2  39.3       39.3       0.07666   
   1   279   1U    0     1     1  39.3       39.3       0.1150    
   1   279   2     0     2     2  39.3       39.3       0.05750   
   1   280   1U    0     1     1  39.3       39.3       0.08624   
   1   280   2     0     2     2  39.4       39.4       0.04312   
   1   281   1     0     2     2  39.4       39.4       0.06468   
   1   282   1U    0     1     1  39.4       39.4       0.09702   
   1   282   2     0     2     2  39.5       39.5       0.04851   
   1   283   1     0     2     2  39.6       39.6       0.07277   
   1   284   1U    0     1     1  39.6       39.6       0.1092    
   1   284   2     0     2     2  39.6       39.6       0.05458   
   1   285   1     0     2     2  39.7       39.7       0.08186   
   1   286   1U    0     1     1  39.7       39.7       0.1228    
   1   286   2     0     2     2  39.8       39.8       0.06140   
   1   287   1U    0     2     2  39.8       39.8       0.09210   
   1   287   2     0     2     2  39.8       39.8       0.04605   
   1   288   1     0     2     2  39.9       39.9       0.06907   
   1   289   1     0     2     2  40.0       40.0       0.1036    
   1   290   1U    0     1     1  40.0       40.0       0.1554    
   1   290   2     0     2     2  40.1       40.1       0.07771   
   1   291   1     0     2     2  40.2       40.2       0.1166    
   1   292   1U    0     1     1  40.2       40.2       0.1748    
   1   292   2     0     2     2  40.3       40.3       0.08742   
   1   293   1     0     2     2  40.4       40.4       0.1311    
   1   294   1U    0     1     1  40.4       40.4       0.1967    
   1   294   2     0     2     2  40.5       40.5       0.09835   
   1   295   1     0     2     2  40.6       40.6       0.1475    
   1   296   1U    0     1     1  40.6       40.6       0.2213    
   1   296   2     0     2     2  40.7       40.7       0.1106    
   1   297   1     0     2     2  40.9       40.9       0.1660    
   1   298   1     0     3     3  41.2       41.2       0.2489    
   1   299   1     0     4     4  41.5       41.5       0.3734    
   1   300   1     0     4     4  42.1       42.1       0.5601    
   1   301   1     0     4     4  42.9       42.9       0.8402    
   1   302   1U    0     1     1  42.9       42.9       1.260     
   1   302   2     0     3     3  43.6       43.6       0.6301    
   1   303   1U    0     1     1  43.6       43.6       0.9452    
   1   303   2     0     2     2  44.0       44.0       0.4726    
   1   304   1U    0     0     0  44.0       44.0       0.7089    
   1   304   2U    0     1     1  44.0       44.0       0.1772    
   1   304   3     0     1     1  44.1       44.1       0.08861   
   1   305   1U    0     1     1  44.1       44.1       0.1329    
   1   305   2     0     1     1  44.2       44.2       0.06646   
   1   306   1U    0     1     1  44.2       44.2       0.09969   
   1   306   2     0     2     2  44.2       44.2       0.04984   
   1   307   1     0     2     2  44.3       44.3       0.07477   
   1   308   1U    0     1     1  44.3       44.3       0.1122    
   1   308   2     0     2     2  44.4       44.4       0.05608   
   1   309   1U    0     1     1  44.4       44.4       0.08411   
   1   309   2     0     2     2  44.4       44.4       0.04206   
   1   310   1     0     2     2  44.5       44.5       0.06308   
   1   311   1U    0     1     1  44.5       44.5       0.09463   
   1   311   2     0     2     2  44.5       44.5       0.04731   
   1   312   1     0     2     2  44.6       44.6       0.07097   
   1   313   1U    0     1     1  44.6       44.6       0.1065    
   1   313   2     0     2     2  44.7       44.7       0.05323   
   1   314   1     0     2     2  44.7       44.7       0.07984   
   1   315   1U    0     1     1  44.7       44.7       0.1198    
   1   315   2     0     2     2  44.8       44.8       0.05988   
   1   316   1U    0     1     1  44.8       44.8       0.08982   
   1   316   2     0     2     2  44.8       44.8       0.04491   
   1   317   1     0     2     2  44.9       44.9       0.06737   
   1   318   1     0     2     2  45.0       45.0       0.09714   
   1   319   1     0     2     2  45.1       45.1       0.1000    
   1   320   1     0     2     2  45.2       45.2       0.1000    
   1   321   1     0     2     2  45.3       45.3       0.1000    
   1   322   1     0     2     2  45.4       45.4       0.1000    
   1   323   1     0     2     2  45.5       45.5       0.1000    
   1   324   1     0     2     2  45.6       45.6       0.1000    
   1   325   1     0     2     2  45.7       45.7       0.1000    
   1   326   1     0     2     2  45.8       45.8       0.1000    
   1   327   1     0     2     2  45.9       45.9       0.1000    
   1   328   1     0     2     2  46.0       46.0       0.1000    
   1   329   1     0     2     2  46.1       46.1       0.1000    
   1   330   1     0     2     2  46.2       46.2       0.1000    
   1   331   1     0     2     2  46.3       46.3       0.1000    
   1   332   1     0     2     2  46.4       46.4       0.1000    
   1   333   1     0     2     2  46.5       46.5       0.1000    
   1   334   1     0     2     2  46.6       46.6       0.1000    
   1   335   1     0     2     2  46.7       46.7       0.1000    
   1   336   1     0     2     2  46.8       46.8       0.1000    
   1   337   1     0     2     2  46.9       46.9       0.1000    
   1   338   1     0     2     2  47.0       47.0       0.1000    
   1   339   1     0     2     2  47.1       47.1       0.1000    
   1   340   1     0     2     2  47.2       47.2       0.1000    
   1   341   1     0     2     2  47.3       47.3       0.1000    
   1   342   1     0     2     2  47.4       47.4       0.1000    
   1   343   1     0     2     2  47.5       47.5       0.1000    
   1   344   1     0     2     2  47.6       47.6       0.1000    
   1   345   1     0     2     2  47.7       47.7       0.1000    
   1   346   1     0     2     2  47.8       47.8       0.1000    
   1   347   1     0     2     2  47.9       47.9       0.1000    
   1   348   1     0     2     2  48.0       48.0       0.1000    
   1   349   1     0     2     2  48.1       48.1       0.1000    
   1   350   1     0     2     2  48.2       48.2       0.1000    
   1   351   1     0     2     2  48.3       48.3       0.1000    
   1   352   1     0     2     2  48.4       48.4       0.1000    
   1   353   1     0     2     2  48.5       48.5       0.1000    
   1   354   1     0     2     2  48.6       48.6       0.1000    
   1   355   1     0     2     2  48.7       48.7       0.1000    
   1   356   1     0     2     2  48.8       48.8       0.1000    
   1   357   1     0     2     2  48.9       48.9       0.1000    
   1   358   1     0     1     1  49.0       49.0       0.1000    
   1   359   1     0     1     1  49.1       49.1       0.1000    
   1   360   1     0     2     2  49.2       49.2       0.1000    
   1   361   1U    0     1     1  49.2       49.2       0.1000    
   1   361   2     0     2     2  49.2       49.2       0.05000   
   1   362   1     0     2     2  49.3       49.3       0.05000   
   1   363   1     0     2     2  49.4       49.4       0.07500   
   1   364   1     0     1     1  49.4       49.4       0.02500   
   1   365   1U    0     1     1  49.4       49.4       0.1000    
   1   365   2     0     2     2  49.5       49.5       0.05000   
   1   366   1     0     2     2  49.5       49.5       0.05000   
   1   367   1U    0     1     1  49.5       49.5       0.1000    
   1   367   2     0     2     2  49.5       49.5       0.05000   
   1   368   1     0     2     2  49.6       49.6       0.05000   
   1   369   1     0     2     2  49.7       49.7       0.07500   
   1   370   1     0     1     1  49.7       49.7       0.02500   
   1   371   1U    0     1     1  49.7       49.7       0.1000    
   1   371   2     0     2     2  49.8       49.8       0.05000   
   1   372   1     0     2     2  49.8       49.8       0.05000   
   1   373   1U    0     1     1  49.8       49.8       0.1000    
   1   373   2     0     2     2  49.9       49.9       0.05000   
   1   374   1     0     2     2  49.9       49.9       0.05000   
   1   375   1     0     2     2  50.0       50.0       0.1000    
   1   376   1     0     2     2  50.1       50.1       0.1000    
   1   377   1     0     2     2  50.2       50.2       0.1000    
   1   378   1     0     2     2  50.3       50.3       0.1000    
   1   379   1     0     2     2  50.4       50.4       0.1000    
   1   380   1     0     2     2  50.5       50.5       0.1000    
   1   381   1     0     2     2  50.6       50.6       0.1000    
   1   382   1     0     2     2  50.7       50.7       0.1000    
   1   383   1     0     2     2  50.8       50.8       0.1000    
   1   384   1     0     2     2  50.9       50.9       0.1000    
   1   385   1     0     2     2  51.0       51.0       0.1000    
   1   386   1     0     2     2  51.1       51.1       0.1000    
   1   387   1     0     2     2  51.2       51.2       0.1000    
   1   388   1     0     2     2  51.3       51.3       0.1000    
   1   389   1     0     2     2  51.4       51.4       0.1000    
   1   390   1     0     2     2  51.5       51.5       0.1000    
   1   391   1     0     2     2  51.6       51.6       0.1000    
   1   392   1     0     2     2  51.7       51.7       0.1000    
   1   393   1     0     2     2  51.8       51.8       0.1000    
   1   394   1     0     2     2  51.9       51.9       0.1000    
   1   395   1     0     2     2  52.0       52.0       0.1000    
   1   396   1     0     2     2  52.1       52.1       0.1000    
   1   397   1     0     2     2  52.2       52.2       0.1000    
   1   398   1     0     2     2  52.3       52.3       0.1000    
   1   399   1     0     2     2  52.4       52.4       0.1000    
   1   400   1     0     2     2  52.5       52.5       0.1000    
   1   401   1     0     2     2  52.6       52.6       0.1000    
   1   402   1     0     2     2  52.7       52.7       0.1000    
   1   403   1     0     2     2  52.8       52.8       0.1000    
   1   404   1     0     2     2  52.9       52.9       0.1000    
   1   405   1     0     2     2  53.0       53.0       0.1000    
   1   406   1     0     2     2  53.1       53.1       0.1000    
   1   407   1     0     2     2  53.2       53.2       0.1000    
   1   408   1     0     2     2  53.3       53.3       0.1000    
   1   409   1     0     2     2  53.4       53.4       0.1000    
   1   410   1     0     2     2  53.5       53.5       0.1000    
   1   411   1     0     2     2  53.6       53.6       0.1000    
   1   412   1     0     2     2  53.7       53.7       0.1000    
   1   413   1     0     2     2  53.8       53.8       0.1000    
   1   414   1     0     2     2  53.9       53.9       0.1000    
   1   415   1     0     1     1  54.0       54.0       0.1000    
   1   416   1     0     1     1  54.1       54.1       0.1000    
   1   417   1     0     1     1  54.2       54.2       0.1000    
   1   418   1U    0     1     1  54.2       54.2       0.1000    
   1   418   2     0     2     2  54.2       54.2       0.05000   
   1   419   1     0     2     2  54.3       54.3       0.05000   
   1   420   1U    0     1     1  54.3       54.3       0.1000    
   1   420   2     0     2     2  54.4       54.4       0.05000   
   1   421   1     0     2     2  54.4       54.4       0.05000   
   1   422   1U    0     1     1  54.4       54.4       0.1000    
   1   422   2     0     2     2  54.4       54.4       0.05000   
   1   423   1     0     2     2  54.5       54.5       0.05000   
   1   424   1     0     2     2  54.6       54.6       0.07500   
   1   425   1     0     2     2  54.6       54.6       0.02500   
   1   426   1U    0     1     1  54.6       54.6       0.1000    
   1   426   2     0     2     2  54.7       54.7       0.05000   
   1   427   1     0     2     2  54.7       54.7       0.05000   
   1   428   1     0     2     2  54.8       54.8       0.1000    
   1   429   1U    0     1     1  54.8       54.8       0.1000    
   1   429   2     0     2     2  54.9       54.9       0.05000   
   1   430   1     0     2     2  54.9       54.9       0.05000   
   1   431   1     0     2     2  55.0       55.0       0.1000    
                          
 THE ANALYSIS HAS COMPLETED SUCCESSFULLY
